Info: SIMULATION PARAMETERS:
Info: TIMESTEP               2
Info: NUMBER OF STEPS        0
Info: STEPS PER CYCLE        10
Info: PERIODIC CELL BASIS 1  41.123 0 0
Info: PERIODIC CELL BASIS 2  0 40.343 0
Info: PERIODIC CELL BASIS 3  0 0 39.119
Info: PERIODIC CELL CENTER   0 0 0
Info: WRAPPING WATERS AROUND PERIODIC BOUNDARIES ON OUTPUT.
Info: WRAPPING ALL CLUSTERS AROUND PERIODIC BOUNDARIES ON OUTPUT.
Info: FIRST LDB TIMESTEP     50
Info: LAST LDB TIMESTEP     -1
Info: HOM BACKGROUND SCALING 1
Info: PME BACKGROUND SCALING 1
Info: MIN ATOMS PER PATCH    40
Info: EMPTY PATCH LOAD       40 ATOMS
Info: INITIAL TEMPERATURE    300
Info: CENTER OF MASS MOVING INITIALLY? NO
Info: DIELECTRIC             1
Info: EXCLUDE                SCALED ONE-FOUR
Info: 1-4 ELECTROSTATICS SCALED BY 0.833333
Info: MODIFIED 1-4 VDW PARAMETERS WILL BE USED
Info: DCD FILENAME           mobley_3211679_min.dcd
Info: DCD FREQUENCY          5000
Info: DCD FIRST STEP         5000
Info: DCD FILE WILL CONTAIN UNIT CELL DATA
Info: XST FILENAME           mobley_3211679_min.xst
Info: XST FREQUENCY          5000
Info: NO VELOCITY DCD OUTPUT
Info: NO FORCE DCD OUTPUT
Info: OUTPUT FILENAME        mobley_3211679_min
Info: BINARY OUTPUT FILES WILL BE USED
Info: RESTART FILENAME       mobley_3211679_min.restart
Info: RESTART FREQUENCY      5000
Info: BINARY RESTART FILES WILL BE USED
Info: CUTOFF                 9
Info: PAIRLIST DISTANCE      11
Info: PAIRLIST SHRINK RATE   0.01
Info: PAIRLIST GROW RATE     0.01
Info: PAIRLIST TRIGGER       0.3
Info: PAIRLISTS PER CYCLE    2
Info: PAIRLISTS ENABLED
Info: MARGIN                 8
Info: HYDROGEN GROUP CUTOFF  2.5
Info: PATCH DIMENSION        21.5
Info: ENERGY OUTPUT STEPS    5000
Info: ENERGY EVALUATION STEPS    5000
Info: OUTPUT ENERGY PRECISION 4
Info: CROSSTERM ENERGY INCLUDED IN DIHEDRAL
Info: TIMING OUTPUT STEPS    50000
Info: PRESSURE OUTPUT STEPS  5000
Info: LANGEVIN DYNAMICS ACTIVE
Info: LANGEVIN TEMPERATURE   300
Info: LANGEVIN USING BBK INTEGRATOR
Info: LANGEVIN DAMPING COEFFICIENT IS 1 INVERSE PS
Info: LANGEVIN DYNAMICS APPLIED TO HYDROGENS
Info: LANGEVIN PISTON PRESSURE CONTROL ACTIVE
Info:        TARGET PRESSURE IS 1.01325 BAR
Info:     OSCILLATION PERIOD IS 50 FS
Info:             DECAY TIME IS 25 FS
Info:     PISTON TEMPERATURE IS 300 K
Info:       PRESSURE CONTROL IS GROUP-BASED
Info:    INITIAL STRAIN RATE IS 0 0 0
Info:       CELL FLUCTUATION IS ISOTROPIC
Info: PARTICLE MESH EWALD (PME) ACTIVE
Info: PME TOLERANCE               1e-06
Info: PME EWALD COEFFICIENT       0.348832
Info: PME INTERPOLATION ORDER     4
Info: PME GRID DIMENSIONS         44 44 40
Info: PME MAXIMUM GRID SPACING    1
Info: FULL ELECTROSTATIC EVALUATION FREQUENCY      2
Info: USING VERLET I (r-RESPA) MTS SCHEME.
Info: C1 SPLITTING OF LONG RANGE ELECTROSTATICS
Info: PLACING ATOMS IN PATCHES BY HYDROGEN GROUPS
Info: RIGID BONDS TO HYDROGEN : ALL
Info:         ERROR TOLERANCE : 1e-08
Info:          MAX ITERATIONS : 100
Info: RIGID WATER USING SETTLE ALGORITHM
Info: RANDOM NUMBER SEED     1741321891
Info: USE HYDROGEN BONDS?    NO
Info: Using AMBER format force field!
Info: AMBER PARM FILE        mobley_3211679.prmtop
Info: COORDINATE PDB         mobley_3211679.pdb
Info: Exclusions will be read from PARM file!
Info: SCNB (VDW SCALING)     2
Info: USING ARITHMETIC MEAN TO COMBINE L-J SIGMA PARAMETERS
Info: SUMMARY OF PARAMETERS:
Info: 7 BONDS
Info: 8 ANGLES
Info:   8 HARMONIC
Info:   0 COSINE-BASED
Info: 10 DIHEDRAL
Info: 0 IMPROPER
Info: 0 CROSSTERM
Info: 0 VDW
Info: 21 VDW_PAIRS
Info: 0 NBTHOLE_PAIRS
Info: STRUCTURE SUMMARY:
Info: 4693 ATOMS
Info: 4693 BONDS
Info: 30 ANGLES
Info: 45 DIHEDRALS
Info: 0 IMPROPERS
Info: 0 CROSSTERMS
Info: 4763 EXCLUSIONS
Info: 4687 RIGID BONDS
Info: 9392 DEGREES OF FREEDOM
Info: 1565 HYDROGEN GROUPS
Info: 3 ATOMS IN LARGEST HYDROGEN GROUP
Info: 1565 MIGRATION GROUPS
Info: 3 ATOMS IN LARGEST MIGRATION GROUP
Info: TOTAL MASS = 28169.1 amu
Info: TOTAL CHARGE = -0.000200011 e
Info: MASS DENSITY = 0.720761 g/cm^3
Info: ATOM DENSITY = 0.0723119 atoms/A^3
Info: ADDED 0 IMPLICIT EXCLUSIONS
Info: NONBONDED TABLE R-SQUARED SPACING: 0.0625
Info: NONBONDED TABLE SIZE: 705 POINTS
Info: REMOVING COM VELOCITY 0.171025 -0.127418 0.0704242
TCL: Minimizing for 2000 steps
ETITLE: TS BOND ANGLE DIHED IMPRP ELECT VDW BOUNDARY MISC KINETIC TOTAL TEMP POTENTIAL TOTAL3 TEMPAVG PRESSURE GPRESSURE VOLUME PRESSAVG GPRESSAVG
ENERGY: 0 0.0737 0.6516 1.4553 0.0000 -14634.7062 1654.6342 0.0000 0.0000 0.0000 -12977.8914 0.0000 -12977.8914 -12977.8914 0.0000 11023.8357 -15893.6848 64899.4064 11023.8357 -15893.6848
ENERGY: 400 2.8221 1.5375 1.5036 0.0000 -19567.4574 2770.4913 0.0000 0.0000 0.0000 -16791.1028 0.0000 -16791.1028 -16791.1028 0.0000 15332.4697 15152.9917 64899.4064 15332.4697 15152.9917
ENERGY: 800 0.7626 0.3882 1.4421 0.0000 -20659.0019 3300.4335 0.0000 0.0000 0.0000 -17355.9755 0.0000 -17355.9755 -17355.9755 0.0000 17847.5332 17656.8025 64899.4064 17847.5332 17656.8025
ENERGY: 1200 0.6309 0.3949 1.4258 0.0000 -21155.6349 3564.8999 0.0000 0.0000 0.0000 -17588.2834 0.0000 -17588.2834 -17588.2834 0.0000 19174.8313 18951.0750 64899.4064 19174.8313 18951.0750
ENERGY: 1600 0.2178 0.4424 1.4673 0.0000 -21402.2086 3700.9475 0.0000 0.0000 0.0000 -17699.1336 0.0000 -17699.1336 -17699.1336 0.0000 19875.2638 19632.2395 64899.4064 19875.2638 19632.2395
ENERGY: 2000 0.2359 0.2457 1.4283 0.0000 -21523.7109 3739.4844 0.0000 0.0000 0.0000 -17782.3166 0.0000 -17782.3166 -17782.3166 0.0000 20075.5816 19838.6992 64899.4064 20075.5816 19838.6992
TCL: Exiting due to exit command.
Info: NAMD 3.0.1 for Linux-x86_64-multicore
Info: Please visit http://www.ks.uiuc.edu/Research/namd/
Info: for updates, documentation, and support information.
Info: Please cite Phillips et al., J. Chem. Phys. 153:044130 (2020) doi:10.1063/5.0014475
Info: in all publications reporting results obtained with NAMD.
Info: Based on Charm++/Converse 80000 for multicore-linux-x86_64-gcc
Info: Built Mon Oct 14 11:11:06 CDT 2024 by dhardy on athine.ks.uiuc.edu
Info: 1 NAMD  3.0.1  Linux-x86_64-multicore  16    k015  z5358697
Info: Running on 16 processors, 1 nodes, 1 physical nodes.
Info: CPU topology information available.
Info: Charm++/Converse parallel runtime startup completed at 0.00933932 s
Info: 1043.45 MB of memory in use based on /proc/self/stat
Info: Configuration file is mobley_3211679_equil.namd
Info: Working in the current directory /srv/scratch/z5358697/prod_prep_3/3211679
TCL: Running 25000 steps at 30 kelvin.
TCL: Suspending until startup complete.
Info: SIMULATION PARAMETERS:
Info: TIMESTEP               2
Info: NUMBER OF STEPS        0
Info: STEPS PER CYCLE        10
Info: PERIODIC CELL BASIS 1  41.123 0 0
Info: PERIODIC CELL BASIS 2  0 40.343 0
Info: PERIODIC CELL BASIS 3  0 0 39.119
Info: PERIODIC CELL CENTER   0 0 0
Info: WRAPPING WATERS AROUND PERIODIC BOUNDARIES ON OUTPUT.
Info: WRAPPING ALL CLUSTERS AROUND PERIODIC BOUNDARIES ON OUTPUT.
Info: FIRST LDB TIMESTEP     50
Info: LAST LDB TIMESTEP     -1
Info: HOM BACKGROUND SCALING 1
Info: PME BACKGROUND SCALING 1
Info: MIN ATOMS PER PATCH    40
Info: EMPTY PATCH LOAD       40 ATOMS
Info: INITIAL TEMPERATURE    300
Info: CENTER OF MASS MOVING INITIALLY? NO
Info: DIELECTRIC             1
Info: EXCLUDE                SCALED ONE-FOUR
Info: 1-4 ELECTROSTATICS SCALED BY 0.833333
Info: MODIFIED 1-4 VDW PARAMETERS WILL BE USED
Info: DCD FILENAME           mobley_3211679_equil.dcd
Info: DCD FREQUENCY          5000
Info: DCD FIRST STEP         5000
Info: DCD FILE WILL CONTAIN UNIT CELL DATA
Info: XST FILENAME           mobley_3211679_equil.xst
Info: XST FREQUENCY          5000
Info: NO VELOCITY DCD OUTPUT
Info: NO FORCE DCD OUTPUT
Info: OUTPUT FILENAME        mobley_3211679_equil
Info: BINARY OUTPUT FILES WILL BE USED
Info: RESTART FILENAME       mobley_3211679_equil.restart
Info: RESTART FREQUENCY      5000
Info: BINARY RESTART FILES WILL BE USED
Info: CUTOFF                 9
Info: PAIRLIST DISTANCE      11
Info: PAIRLIST SHRINK RATE   0.01
Info: PAIRLIST GROW RATE     0.01
Info: PAIRLIST TRIGGER       0.3
Info: PAIRLISTS PER CYCLE    2
Info: PAIRLISTS ENABLED
Info: MARGIN                 8
Info: HYDROGEN GROUP CUTOFF  2.5
Info: PATCH DIMENSION        21.5
Info: ENERGY OUTPUT STEPS    5000
Info: ENERGY EVALUATION STEPS    5000
Info: OUTPUT ENERGY PRECISION 4
Info: CROSSTERM ENERGY INCLUDED IN DIHEDRAL
Info: TIMING OUTPUT STEPS    50000
Info: PRESSURE OUTPUT STEPS  5000
Info: LANGEVIN DYNAMICS ACTIVE
Info: LANGEVIN TEMPERATURE   30
Info: LANGEVIN USING BBK INTEGRATOR
Info: LANGEVIN DAMPING COEFFICIENT IS 1 INVERSE PS
Info: LANGEVIN DYNAMICS APPLIED TO HYDROGENS
Info: LANGEVIN PISTON PRESSURE CONTROL ACTIVE
Info:        TARGET PRESSURE IS 1.01325 BAR
Info:     OSCILLATION PERIOD IS 50 FS
Info:             DECAY TIME IS 25 FS
Info:     PISTON TEMPERATURE IS 300 K
Info:       PRESSURE CONTROL IS GROUP-BASED
Info:    INITIAL STRAIN RATE IS 0 0 0
Info:       CELL FLUCTUATION IS ISOTROPIC
Info: PARTICLE MESH EWALD (PME) ACTIVE
Info: PME TOLERANCE               1e-06
Info: PME EWALD COEFFICIENT       0.348832
Info: PME INTERPOLATION ORDER     4
Info: PME GRID DIMENSIONS         44 44 40
Info: PME MAXIMUM GRID SPACING    1
Info: FULL ELECTROSTATIC EVALUATION FREQUENCY      2
Info: USING VERLET I (r-RESPA) MTS SCHEME.
Info: C1 SPLITTING OF LONG RANGE ELECTROSTATICS
Info: PLACING ATOMS IN PATCHES BY HYDROGEN GROUPS
Info: RIGID BONDS TO HYDROGEN : ALL
Info:         ERROR TOLERANCE : 1e-08
Info:          MAX ITERATIONS : 100
Info: RIGID WATER USING SETTLE ALGORITHM
Info: RANDOM NUMBER SEED     1741321910
Info: USE HYDROGEN BONDS?    NO
Info: Using AMBER format force field!
Info: AMBER PARM FILE        mobley_3211679.prmtop
Info: COORDINATE PDB         mobley_3211679.pdb
Info: Exclusions will be read from PARM file!
Info: SCNB (VDW SCALING)     2
Info: USING ARITHMETIC MEAN TO COMBINE L-J SIGMA PARAMETERS
Info: BINARY COORDINATES     mobley_3211679_min.coor
Info: SUMMARY OF PARAMETERS:
Info: 7 BONDS
Info: 8 ANGLES
Info:   8 HARMONIC
Info:   0 COSINE-BASED
Info: 10 DIHEDRAL
Info: 0 IMPROPER
Info: 0 CROSSTERM
Info: 0 VDW
Info: 21 VDW_PAIRS
Info: 0 NBTHOLE_PAIRS
Info: STRUCTURE SUMMARY:
Info: 4693 ATOMS
Info: 4693 BONDS
Info: 30 ANGLES
Info: 45 DIHEDRALS
Info: 0 IMPROPERS
Info: 0 CROSSTERMS
Info: 4763 EXCLUSIONS
Info: 4687 RIGID BONDS
Info: 9392 DEGREES OF FREEDOM
Info: 1565 HYDROGEN GROUPS
Info: 3 ATOMS IN LARGEST HYDROGEN GROUP
Info: 1565 MIGRATION GROUPS
Info: 3 ATOMS IN LARGEST MIGRATION GROUP
Info: TOTAL MASS = 28169.1 amu
Info: TOTAL CHARGE = -0.000200011 e
Info: MASS DENSITY = 0.720761 g/cm^3
Info: ATOM DENSITY = 0.0723119 atoms/A^3
Info: ADDED 0 IMPLICIT EXCLUSIONS
Info: NONBONDED TABLE R-SQUARED SPACING: 0.0625
Info: NONBONDED TABLE SIZE: 705 POINTS
Info: REMOVING COM VELOCITY -0.0455469 -0.0499744 0.040448
TCL: Running for 25000 steps
ETITLE: TS BOND ANGLE DIHED IMPRP ELECT VDW BOUNDARY MISC KINETIC TOTAL TEMP POTENTIAL TOTAL3 TEMPAVG PRESSURE GPRESSURE VOLUME PRESSAVG GPRESSAVG
ENERGY: 0 0.2359 0.2457 1.4283 0.0000 -21523.7109 3739.4844 0.0000 0.0000 2853.7653 -14928.5514 305.8092 -17782.3166 -14927.9913 305.8092 270.3134 302.8606 64899.4064 270.3134 302.8606
ENERGY: 5000 0.0873 0.9084 1.7883 0.0000 -22528.0540 3972.6335 0.0000 0.0000 283.9963 -18268.6402 30.4330 -18552.6365 -18267.5751 47.8806 385.6322 444.8874 45590.5815 -1.1641 -1.0666
ENERGY: 10000 0.4846 0.8572 1.5910 0.0000 -22434.8637 3842.9043 0.0000 0.0000 286.2939 -18302.7327 30.6792 -18589.0266 -18302.1797 30.2841 -399.0743 -332.1380 45776.2462 2.0596 1.7468
ENERGY: 15000 0.3126 0.7682 1.3622 0.0000 -22546.7117 3911.5782 0.0000 0.0000 280.9194 -18351.7710 30.1033 -18632.6904 -18351.0177 30.4089 -127.8814 -79.3198 45560.3464 3.2514 3.3409
ENERGY: 20000 0.5621 1.0162 1.4166 0.0000 -22623.5932 3961.0222 0.0000 0.0000 286.5905 -18372.9856 30.7110 -18659.5761 -18372.3626 29.9146 101.6163 151.1161 45508.5283 -0.5189 -0.5078
ENERGY: 25000 0.3008 0.9118 1.4591 0.0000 -22529.4419 3860.9423 0.0000 0.0000 282.2881 -18383.5399 30.2500 -18665.8280 -18382.8088 30.1801 -494.2815 -450.1666 45694.5650 6.4979 6.4422
TCL: Running 25000 steps at 60 kelvin.
TCL: Setting parameter langevinTemp to 60
TCL: Running for 25000 steps
ETITLE: TS BOND ANGLE DIHED IMPRP ELECT VDW BOUNDARY MISC KINETIC TOTAL TEMP POTENTIAL TOTAL3 TEMPAVG PRESSURE GPRESSURE VOLUME PRESSAVG GPRESSAVG
ENERGY: 25000 0.3008 0.9118 1.4591 0.0000 -22529.4419 3860.9423 0.0000 0.0000 282.1492 -18383.6788 30.2351 -18665.8280 -18383.0412 30.2351 -507.1488 -450.1931 45694.5650 -507.1488 -450.1931
ENERGY: 30000 0.7713 1.3937 1.6412 0.0000 -22207.3114 3803.2122 0.0000 0.0000 565.3351 -17834.9579 60.5812 -18400.2929 -17833.3088 57.1326 -169.6751 -106.9991 45813.2091 -0.1003 -0.3328
ENERGY: 35000 0.2142 0.9647 1.6521 0.0000 -22370.7683 3919.7622 0.0000 0.0000 553.7184 -17894.4567 59.3364 -18448.1751 -17892.7543 60.4982 380.8894 450.5291 45671.0703 4.5619 4.6070
ENERGY: 40000 0.3761 1.3011 1.3589 0.0000 -22353.5896 3872.0089 0.0000 0.0000 548.0848 -17930.4597 58.7327 -18478.5445 -17928.9793 60.2607 -51.9378 9.2378 45838.9410 2.0356 2.1621
ENERGY: 45000 0.4504 1.9253 1.5204 0.0000 -22347.1941 3860.3931 0.0000 0.0000 551.5327 -17931.3723 59.1022 -18482.9049 -17929.7850 60.4395 -112.3230 -53.2144 45971.9379 4.5483 4.4070
ENERGY: 50000 0.0817 1.7271 1.7751 0.0000 -22358.9982 3861.1209 0.0000 0.0000 564.5517 -17929.7418 60.4973 -18494.2935 -17928.0932 60.0539 -21.5071 50.8048 45759.0270 1.7356 1.6129
TCL: Running 25000 steps at 90 kelvin.
TCL: Setting parameter langevinTemp to 90
TCL: Running for 25000 steps
ETITLE: TS BOND ANGLE DIHED IMPRP ELECT VDW BOUNDARY MISC KINETIC TOTAL TEMP POTENTIAL TOTAL3 TEMPAVG PRESSURE GPRESSURE VOLUME PRESSAVG GPRESSAVG
ENERGY: 50000 0.0817 1.7271 1.7751 0.0000 -22358.9982 3861.1209 0.0000 0.0000 564.2825 -17930.0109 60.4685 -18494.2935 -17928.8394 60.4685 3.1133 51.1902 45759.0270 3.1133 51.1902
ENERGY: 55000 0.5111 2.2443 2.0338 0.0000 -21959.8365 3737.5214 0.0000 0.0000 835.8495 -17381.6764 89.5696 -18217.5259 -17379.7219 87.6379 -53.7358 -4.0379 45998.1430 3.1621 3.4670
ENERGY: 60000 0.5268 1.3881 1.8648 0.0000 -21827.3501 3561.1259 0.0000 0.0000 841.3345 -17421.1099 90.1573 -18262.4445 -17418.6532 91.0291 -1101.9926 -1028.8712 46276.2270 4.0324 3.9559
ENERGY: 65000 1.1163 2.9368 2.3344 0.0000 -22083.9637 3785.7869 0.0000 0.0000 845.9283 -17445.8611 90.6496 -18291.7894 -17443.0438 90.3490 112.9408 175.4952 45667.6717 2.4855 2.4299
ENERGY: 70000 0.5036 1.8857 1.5938 0.0000 -22170.8474 3870.4074 0.0000 0.0000 843.2134 -17453.2434 90.3587 -18296.4568 -17452.1154 90.7997 489.0960 573.2030 45575.9031 1.0294 0.6103
ENERGY: 75000 0.3111 2.3098 1.7491 0.0000 -22239.5133 3908.1997 0.0000 0.0000 851.1938 -17475.7498 91.2138 -18326.9436 -17472.8783 90.0664 718.1443 753.5856 45478.9535 0.5786 0.0448
TCL: Running 25000 steps at 120 kelvin.
TCL: Setting parameter langevinTemp to 120
TCL: Running for 25000 steps
ETITLE: TS BOND ANGLE DIHED IMPRP ELECT VDW BOUNDARY MISC KINETIC TOTAL TEMP POTENTIAL TOTAL3 TEMPAVG PRESSURE GPRESSURE VOLUME PRESSAVG GPRESSAVG
ENERGY: 75000 0.3111 2.3098 1.7491 0.0000 -22239.5133 3908.1997 0.0000 0.0000 850.7683 -17476.1753 91.1682 -18326.9436 -17474.7358 91.1682 690.3734 754.0059 45478.9535 690.3734 754.0059
ENERGY: 80000 0.6180 3.0976 2.1132 0.0000 -21516.9509 3519.7535 0.0000 0.0000 1123.4311 -16867.9376 120.3868 -17991.3687 -16864.6046 117.2573 -631.8419 -561.5303 46102.6666 1.7161 2.2270
ENERGY: 85000 0.2083 2.0929 1.8819 0.0000 -21933.5880 3851.9968 0.0000 0.0000 1100.1434 -16977.2646 117.8913 -18077.4081 -16974.9699 120.4918 1087.4544 1140.0254 45336.3053 2.7821 2.7152
ENERGY: 90000 0.3089 2.8779 2.5178 0.0000 -21768.6997 3685.3240 0.0000 0.0000 1131.8265 -16945.8446 121.2864 -18077.6711 -16943.2119 119.4477 165.4629 200.5757 45522.2863 1.0406 0.7976
ENERGY: 95000 0.6908 3.5670 1.4999 0.0000 -21728.8554 3634.4253 0.0000 0.0000 1120.7949 -16967.8775 120.1043 -18088.6724 -16965.2482 120.5397 -205.4348 -124.0660 45605.4814 0.0907 0.0565
ENERGY: 100000 2.5322 1.9842 1.4444 0.0000 -21720.1270 3604.1352 0.0000 0.0000 1095.5847 -17014.4462 117.4028 -18110.0309 -17012.9202 119.7897 -408.5816 -340.1173 45596.6058 0.7974 0.7205
TCL: Running 25000 steps at 150 kelvin.
TCL: Setting parameter langevinTemp to 150
TCL: Running for 25000 steps
ETITLE: TS BOND ANGLE DIHED IMPRP ELECT VDW BOUNDARY MISC KINETIC TOTAL TEMP POTENTIAL TOTAL3 TEMPAVG PRESSURE GPRESSURE VOLUME PRESSAVG GPRESSAVG
ENERGY: 100000 2.5322 1.9842 1.4444 0.0000 -21720.1270 3604.1352 0.0000 0.0000 1095.0050 -17015.0259 117.3406 -18110.0309 -17012.7177 117.3406 -401.5489 -341.1909 45596.6058 -401.5489 -341.1909
ENERGY: 105000 1.3909 2.9481 1.8103 0.0000 -21365.5090 3571.0936 0.0000 0.0000 1364.9085 -16423.3576 146.2635 -17788.2661 -16421.8389 145.6552 59.6027 142.8906 45971.8912 2.5989 2.3260
ENERGY: 110000 0.9803 2.2910 2.0883 0.0000 -21171.8038 3377.9254 0.0000 0.0000 1386.9282 -16401.5906 148.6231 -17788.5188 -16398.3515 149.1340 -798.2412 -732.1181 45989.3009 5.5371 5.6375
ENERGY: 115000 2.9917 4.0311 1.6014 0.0000 -21366.7008 3538.5347 0.0000 0.0000 1392.9536 -16426.5884 149.2688 -17819.5419 -16422.3144 149.4096 -147.1877 -103.1006 45933.4398 1.7809 2.0275
ENERGY: 120000 1.9942 1.2027 1.9357 0.0000 -21154.2100 3350.7385 0.0000 0.0000 1392.4332 -16405.9058 149.2130 -17798.3390 -16402.3106 149.7179 -1153.6031 -1053.0109 46085.1132 6.5114 6.8443
ENERGY: 125000 1.3064 4.9936 1.6036 0.0000 -21478.8516 3635.2255 0.0000 0.0000 1398.3551 -16437.3674 149.8476 -17835.7225 -16433.6432 149.6604 276.6561 338.3369 46037.4000 8.9995 8.6598
TCL: Running 50000 steps at 180 kelvin.
TCL: Setting parameter langevinTemp to 180
TCL: Running for 50000 steps
ETITLE: TS BOND ANGLE DIHED IMPRP ELECT VDW BOUNDARY MISC KINETIC TOTAL TEMP POTENTIAL TOTAL3 TEMPAVG PRESSURE GPRESSURE VOLUME PRESSAVG GPRESSAVG
ENERGY: 125000 1.3064 4.9936 1.6036 0.0000 -21478.8516 3635.2255 0.0000 0.0000 1397.6511 -16438.0714 149.7722 -17835.7225 -16435.4161 149.7722 278.8538 338.9553 46037.4000 278.8538 338.9553
ENERGY: 135000 3.4731 4.9291 2.1687 0.0000 -20810.5012 3389.9752 0.0000 0.0000 1726.2554 -15683.6998 184.9854 -17409.9552 -15680.0559 180.0372 136.5545 182.8884 45897.4219 3.1751 3.2217
ENERGY: 145000 0.5636 2.1939 2.0269 0.0000 -20883.6811 3397.2967 0.0000 0.0000 1640.3482 -15841.2519 175.7795 -17481.6001 -15838.5834 179.2415 101.1528 138.1985 45663.4534 3.1702 3.1136
ENERGY: 155000 1.0655 4.3846 1.9231 0.0000 -20588.1994 3215.9786 0.0000 0.0000 1664.1425 -15700.7050 178.3293 -17364.8476 -15697.1578 180.3581 -563.2365 -505.7130 45800.7363 -0.7509 -0.4589
ENERGY: 165000 1.2965 3.0950 2.3100 0.0000 -20743.9971 3239.6677 0.0000 0.0000 1683.7696 -15813.8583 180.4326 -17497.6279 -15809.6992 181.3835 -812.6350 -737.3685 46015.2902 3.5291 3.4312
ENERGY: 175000 0.6167 6.1235 3.1808 0.0000 -20919.7583 3429.2924 0.0000 0.0000 1706.0088 -15774.5361 182.8157 -17480.5449 -15769.1916 181.2079 159.1954 214.2064 46029.5728 1.9521 1.4265
TCL: Running 50000 steps at 210 kelvin.
TCL: Setting parameter langevinTemp to 210
TCL: Running for 50000 steps
ETITLE: TS BOND ANGLE DIHED IMPRP ELECT VDW BOUNDARY MISC KINETIC TOTAL TEMP POTENTIAL TOTAL3 TEMPAVG PRESSURE GPRESSURE VOLUME PRESSAVG GPRESSAVG
ENERGY: 175000 0.6167 6.1235 3.1808 0.0000 -20919.7583 3429.2924 0.0000 0.0000 1705.1768 -15775.3681 182.7266 -17480.5449 -15771.8517 182.7266 147.9631 214.0476 46029.5728 147.9631 214.0476
ENERGY: 185000 2.5910 5.9524 3.3727 0.0000 -19731.0635 2956.0728 0.0000 0.0000 1978.0771 -14784.9975 211.9705 -16763.0746 -14782.6679 210.8775 -563.0327 -451.6049 45702.6377 2.2176 2.3305
ENERGY: 195000 0.8144 4.6989 1.6356 0.0000 -19749.8763 2998.6875 0.0000 0.0000 1942.4744 -14801.5655 208.1554 -16744.0399 -14793.8365 210.2470 -131.2985 -56.6897 45734.0841 3.8121 3.9809
ENERGY: 205000 1.0095 3.2589 1.9001 0.0000 -19749.5837 3050.9793 0.0000 0.0000 1930.2220 -14762.2138 206.8424 -16692.4358 -14758.5596 210.5260 82.0183 184.1077 45863.1933 3.1289 3.0442
ENERGY: 215000 0.2874 4.8727 2.4638 0.0000 -19689.5289 2951.1887 0.0000 0.0000 1934.2010 -14796.5153 207.2688 -16730.7163 -14792.3051 210.1488 -328.6324 -210.9510 45568.2758 9.1672 9.3519
ENERGY: 225000 0.7878 3.7417 2.4539 0.0000 -19922.9482 3156.6547 0.0000 0.0000 1950.7972 -14808.5129 209.0472 -16759.3101 -14804.4898 211.0036 638.1550 740.4478 45415.7871 3.5321 2.7192
TCL: Running 50000 steps at 240 kelvin.
TCL: Setting parameter langevinTemp to 240
TCL: Running for 50000 steps
ETITLE: TS BOND ANGLE DIHED IMPRP ELECT VDW BOUNDARY MISC KINETIC TOTAL TEMP POTENTIAL TOTAL3 TEMPAVG PRESSURE GPRESSURE VOLUME PRESSAVG GPRESSAVG
ENERGY: 225000 0.7878 3.7417 2.4539 0.0000 -19922.9482 3156.6547 0.0000 0.0000 1949.8162 -14809.4939 208.9421 -16759.3101 -14806.1344 208.9421 670.6348 739.7673 45415.7871 670.6348 739.7673
ENERGY: 235000 1.0522 6.4607 1.5688 0.0000 -18631.9874 2623.7276 0.0000 0.0000 2240.1540 -13759.0241 240.0547 -15999.1781 -13753.4977 238.4829 -405.0738 -338.2081 46004.5569 4.5571 4.7027
ENERGY: 245000 1.3060 9.0198 3.0024 0.0000 -18639.7509 2568.2929 0.0000 0.0000 2221.9478 -13836.1819 238.1037 -16058.1297 -13832.8415 238.8095 -884.0669 -801.7319 46128.8058 0.5854 0.4565
ENERGY: 255000 1.7704 4.0042 2.1765 0.0000 -18692.4613 2650.2396 0.0000 0.0000 2258.2297 -13776.0409 241.9917 -16034.2706 -13770.0932 241.1285 -558.4343 -475.1734 46501.8105 -0.3121 -1.3653
ENERGY: 265000 1.5725 3.9555 3.5998 0.0000 -18950.5142 2750.2255 0.0000 0.0000 2321.8593 -13869.3015 248.8102 -16191.1608 -13864.1226 241.1494 -83.2631 -24.5652 45941.4439 2.3694 2.3620
ENERGY: 275000 5.1228 5.0250 2.2159 0.0000 -18731.1040 2711.5387 0.0000 0.0000 2259.0996 -13748.1019 242.0849 -16007.2015 -13746.0719 239.7256 -246.2952 -137.2682 46492.0347 -0.9880 -0.2791
TCL: Running 50000 steps at 270 kelvin.
TCL: Setting parameter langevinTemp to 270
TCL: Running for 50000 steps
ETITLE: TS BOND ANGLE DIHED IMPRP ELECT VDW BOUNDARY MISC KINETIC TOTAL TEMP POTENTIAL TOTAL3 TEMPAVG PRESSURE GPRESSURE VOLUME PRESSAVG GPRESSAVG
ENERGY: 275000 5.1228 5.0250 2.2159 0.0000 -18731.1040 2711.5387 0.0000 0.0000 2257.9816 -13749.2199 241.9651 -16007.2015 -13744.6774 241.9651 -234.8938 -139.0825 46492.0347 -234.8938 -139.0825
ENERGY: 285000 0.4437 5.5948 2.0639 0.0000 -17979.2576 2560.5156 0.0000 0.0000 2501.1959 -12909.4437 268.0279 -15410.6396 -12905.4660 268.9083 389.1389 491.1765 46622.7294 -0.5399 -1.0159
ENERGY: 295000 1.9879 6.3561 2.4987 0.0000 -17947.9514 2522.0258 0.0000 0.0000 2490.8347 -12924.2482 266.9176 -15415.0829 -12918.9700 269.5771 61.0268 166.0474 46879.9997 1.3419 2.2899
ENERGY: 305000 0.3152 7.8257 1.9010 0.0000 -17779.5203 2427.8553 0.0000 0.0000 2466.7726 -12874.8505 264.3391 -15341.6231 -12868.5724 268.9673 -490.3157 -386.0168 47515.7474 2.9674 2.6359
ENERGY: 315000 1.2504 6.2758 4.3307 0.0000 -17754.4492 2496.7062 0.0000 0.0000 2538.8145 -12707.0716 272.0591 -15245.8861 -12701.1866 271.2057 104.3014 218.7945 47294.1791 8.1847 7.7117
ENERGY: 325000 1.3986 6.9350 2.1532 0.0000 -17784.9627 2364.6146 0.0000 0.0000 2498.4833 -12911.3779 267.7372 -15409.8612 -12909.2308 271.1070 -898.0181 -776.2376 47397.3833 3.3037 3.6021
TCL: Running 1000000 steps at 300 kelvin.
TCL: Setting parameter langevinTemp to 300
TCL: Running for 1000000 steps
ETITLE: TS BOND ANGLE DIHED IMPRP ELECT VDW BOUNDARY MISC KINETIC TOTAL TEMP POTENTIAL TOTAL3 TEMPAVG PRESSURE GPRESSURE VOLUME PRESSAVG GPRESSAVG
ENERGY: 325000 1.3986 6.9350 2.1532 0.0000 -17784.9627 2364.6146 0.0000 0.0000 2497.2457 -12912.6155 267.6046 -15409.8612 -12907.8835 267.6046 -876.4103 -777.2063 47397.3833 -876.4103 -777.2063
ENERGY: 525000 1.5301 7.5310 1.8243 0.0000 -16929.1948 2257.0388 0.0000 0.0000 2897.6280 -11763.6426 310.5095 -14661.2706 -11757.1132 300.6313 -62.7362 29.4786 48622.7870 -0.7091 -0.9791
ENERGY: 725000 2.1573 3.9357 2.7950 0.0000 -17075.8236 2349.1836 0.0000 0.0000 2836.1959 -11881.5562 303.9265 -14717.7520 -11877.6777 298.1664 39.2256 120.2188 48950.2857 3.0987 2.7218
ENERGY: 925000 1.6661 8.0129 2.8617 0.0000 -16937.9145 2189.3882 0.0000 0.0000 2840.3849 -11895.6007 304.3754 -14735.9856 -11886.8444 300.6561 -588.0494 -507.3161 48745.1672 -0.3613 -0.6713
ENERGY: 1125000 2.2459 3.2757 2.3694 0.0000 -17065.8201 2265.1607 0.0000 0.0000 2818.9694 -11973.7991 302.0805 -14792.7685 -11971.0253 300.0501 -279.4080 -208.6633 48125.7023 -3.2546 -2.6492
ENERGY: 1325000 1.1781 5.0558 1.8234 0.0000 -17156.0324 2380.8144 0.0000 0.0000 2806.6239 -11960.5367 300.7575 -14767.1606 -11954.9662 299.6510 411.2518 505.2377 48086.9142 -2.9191 -2.5108
TCL: Exiting due to exit command.
