Info: SIMULATION PARAMETERS:
Info: TIMESTEP               2
Info: NUMBER OF STEPS        0
Info: STEPS PER CYCLE        10
Info: PERIODIC CELL BASIS 1  41.545 0 0
Info: PERIODIC CELL BASIS 2  0 41.086 0
Info: PERIODIC CELL BASIS 3  0 0 43.754
Info: PERIODIC CELL CENTER   0 0 0
Info: WRAPPING WATERS AROUND PERIODIC BOUNDARIES ON OUTPUT.
Info: WRAPPING ALL CLUSTERS AROUND PERIODIC BOUNDARIES ON OUTPUT.
Info: FIRST LDB TIMESTEP     50
Info: LAST LDB TIMESTEP     -1
Info: HOM BACKGROUND SCALING 1
Info: PME BACKGROUND SCALING 1
Info: MIN ATOMS PER PATCH    40
Info: EMPTY PATCH LOAD       40 ATOMS
Info: INITIAL TEMPERATURE    300
Info: CENTER OF MASS MOVING INITIALLY? NO
Info: DIELECTRIC             1
Info: EXCLUDE                SCALED ONE-FOUR
Info: 1-4 ELECTROSTATICS SCALED BY 0.833333
Info: MODIFIED 1-4 VDW PARAMETERS WILL BE USED
Info: DCD FILENAME           mobley_6896128_min.dcd
Info: DCD FREQUENCY          5000
Info: DCD FIRST STEP         5000
Info: DCD FILE WILL CONTAIN UNIT CELL DATA
Info: XST FILENAME           mobley_6896128_min.xst
Info: XST FREQUENCY          5000
Info: NO VELOCITY DCD OUTPUT
Info: NO FORCE DCD OUTPUT
Info: OUTPUT FILENAME        mobley_6896128_min
Info: BINARY OUTPUT FILES WILL BE USED
Info: RESTART FILENAME       mobley_6896128_min.restart
Info: RESTART FREQUENCY      5000
Info: BINARY RESTART FILES WILL BE USED
Info: CUTOFF                 9
Info: PAIRLIST DISTANCE      11
Info: PAIRLIST SHRINK RATE   0.01
Info: PAIRLIST GROW RATE     0.01
Info: PAIRLIST TRIGGER       0.3
Info: PAIRLISTS PER CYCLE    2
Info: PAIRLISTS ENABLED
Info: MARGIN                 8
Info: HYDROGEN GROUP CUTOFF  2.5
Info: PATCH DIMENSION        21.5
Info: ENERGY OUTPUT STEPS    5000
Info: ENERGY EVALUATION STEPS    5000
Info: OUTPUT ENERGY PRECISION 4
Info: CROSSTERM ENERGY INCLUDED IN DIHEDRAL
Info: TIMING OUTPUT STEPS    50000
Info: PRESSURE OUTPUT STEPS  5000
Info: LANGEVIN DYNAMICS ACTIVE
Info: LANGEVIN TEMPERATURE   300
Info: LANGEVIN USING BBK INTEGRATOR
Info: LANGEVIN DAMPING COEFFICIENT IS 1 INVERSE PS
Info: LANGEVIN DYNAMICS APPLIED TO HYDROGENS
Info: LANGEVIN PISTON PRESSURE CONTROL ACTIVE
Info:        TARGET PRESSURE IS 1.01325 BAR
Info:     OSCILLATION PERIOD IS 50 FS
Info:             DECAY TIME IS 25 FS
Info:     PISTON TEMPERATURE IS 300 K
Info:       PRESSURE CONTROL IS GROUP-BASED
Info:    INITIAL STRAIN RATE IS 0 0 0
Info:       CELL FLUCTUATION IS ISOTROPIC
Info: PARTICLE MESH EWALD (PME) ACTIVE
Info: PME TOLERANCE               1e-06
Info: PME EWALD COEFFICIENT       0.348832
Info: PME INTERPOLATION ORDER     4
Info: PME GRID DIMENSIONS         44 44 44
Info: PME MAXIMUM GRID SPACING    1
Info: FULL ELECTROSTATIC EVALUATION FREQUENCY      2
Info: USING VERLET I (r-RESPA) MTS SCHEME.
Info: C1 SPLITTING OF LONG RANGE ELECTROSTATICS
Info: PLACING ATOMS IN PATCHES BY HYDROGEN GROUPS
Info: RIGID BONDS TO HYDROGEN : ALL
Info:         ERROR TOLERANCE : 1e-08
Info:          MAX ITERATIONS : 100
Info: RIGID WATER USING SETTLE ALGORITHM
Info: RANDOM NUMBER SEED     1741393817
Info: USE HYDROGEN BONDS?    NO
Info: Using AMBER format force field!
Info: AMBER PARM FILE        mobley_6896128.prmtop
Info: COORDINATE PDB         mobley_6896128.pdb
Info: Exclusions will be read from PARM file!
Info: SCNB (VDW SCALING)     2
Info: USING ARITHMETIC MEAN TO COMBINE L-J SIGMA PARAMETERS
Info: SUMMARY OF PARAMETERS:
Info: 4 BONDS
Info: 3 ANGLES
Info:   3 HARMONIC
Info:   0 COSINE-BASED
Info: 3 DIHEDRAL
Info: 0 IMPROPER
Info: 0 CROSSTERM
Info: 0 VDW
Info: 10 VDW_PAIRS
Info: 0 NBTHOLE_PAIRS
Info: STRUCTURE SUMMARY:
Info: 5312 ATOMS
Info: 5311 BONDS
Info: 48 ANGLES
Info: 63 DIHEDRALS
Info: 0 IMPROPERS
Info: 0 CROSSTERMS
Info: 5422 EXCLUSIONS
Info: 5304 RIGID BONDS
Info: 10632 DEGREES OF FREEDOM
Info: 1770 HYDROGEN GROUPS
Info: 4 ATOMS IN LARGEST HYDROGEN GROUP
Info: 1770 MIGRATION GROUPS
Info: 4 ATOMS IN LARGEST MIGRATION GROUP
Info: TOTAL MASS = 31858.4 amu
Info: TOTAL CHARGE = 0.000100002 e
Info: MASS DENSITY = 0.708358 g/cm^3
Info: ATOM DENSITY = 0.0711259 atoms/A^3
Info: ADDED 0 IMPLICIT EXCLUSIONS
Info: NONBONDED TABLE R-SQUARED SPACING: 0.0625
Info: NONBONDED TABLE SIZE: 705 POINTS
Info: REMOVING COM VELOCITY -0.157216 -0.0517079 0.00680147
TCL: Minimizing for 2000 steps
ETITLE: TS BOND ANGLE DIHED IMPRP ELECT VDW BOUNDARY MISC KINETIC TOTAL TEMP POTENTIAL TOTAL3 TEMPAVG PRESSURE GPRESSURE VOLUME PRESSAVG GPRESSAVG
ENERGY: 0 0.1343 0.9064 0.0544 0.0000 -16470.8712 1838.6645 0.0000 0.0000 0.0000 -14631.1115 0.0000 -14631.1115 -14631.1115 0.0000 10870.9851 -15196.8709 74684.4845 10870.9851 -15196.8709
ENERGY: 400 4.4840 3.6424 0.4155 0.0000 -22230.1908 3232.0595 0.0000 0.0000 0.0000 -18989.5894 0.0000 -18989.5894 -18989.5894 0.0000 15581.5657 9969.1828 74684.4845 15581.5657 9969.1828
ENERGY: 800 1.2281 1.9012 0.3056 0.0000 -23442.1551 3780.6015 0.0000 0.0000 0.0000 -19658.1187 0.0000 -19658.1187 -19658.1187 0.0000 17893.1412 11963.9227 74684.4845 17893.1412 11963.9227
ENERGY: 1200 0.9601 1.2899 0.3003 0.0000 -23907.7694 3992.5903 0.0000 0.0000 0.0000 -19912.6288 0.0000 -19912.6288 -19912.6288 0.0000 18838.6248 12868.0010 74684.4845 18838.6248 12868.0010
ENERGY: 1600 3.4169 2.0819 0.3373 0.0000 -24194.4955 4133.0527 0.0000 0.0000 0.0000 -20055.6068 0.0000 -20055.6068 -20055.6068 0.0000 19455.6303 13394.1986 74684.4845 19455.6303 13394.1986
ENERGY: 2000 1.2732 1.0746 0.3865 0.0000 -24333.3481 4183.8003 0.0000 0.0000 0.0000 -20146.8134 0.0000 -20146.8134 -20146.8134 0.0000 19715.2222 13594.3498 74684.4845 19715.2222 13594.3498
TCL: Exiting due to exit command.
Info: NAMD 3.0.1 for Linux-x86_64-multicore
Info: Please visit http://www.ks.uiuc.edu/Research/namd/
Info: for updates, documentation, and support information.
Info: Please cite Phillips et al., J. Chem. Phys. 153:044130 (2020) doi:10.1063/5.0014475
Info: in all publications reporting results obtained with NAMD.
Info: Based on Charm++/Converse 80000 for multicore-linux-x86_64-gcc
Info: Built Mon Oct 14 11:11:06 CDT 2024 by dhardy on athine.ks.uiuc.edu
Info: 1 NAMD  3.0.1  Linux-x86_64-multicore  16    k010  z5358697
Info: Running on 16 processors, 1 nodes, 1 physical nodes.
Info: CPU topology information available.
Info: Charm++/Converse parallel runtime startup completed at 0.00936033 s
Info: 1043.45 MB of memory in use based on /proc/self/stat
Info: Configuration file is mobley_6896128_equil.namd
Info: Working in the current directory /srv/scratch/z5358697/prod_prep_8/6896128
TCL: Running 25000 steps at 30 kelvin.
TCL: Suspending until startup complete.
Info: SIMULATION PARAMETERS:
Info: TIMESTEP               2
Info: NUMBER OF STEPS        0
Info: STEPS PER CYCLE        10
Info: PERIODIC CELL BASIS 1  41.545 0 0
Info: PERIODIC CELL BASIS 2  0 41.086 0
Info: PERIODIC CELL BASIS 3  0 0 43.754
Info: PERIODIC CELL CENTER   0 0 0
Info: WRAPPING WATERS AROUND PERIODIC BOUNDARIES ON OUTPUT.
Info: WRAPPING ALL CLUSTERS AROUND PERIODIC BOUNDARIES ON OUTPUT.
Info: FIRST LDB TIMESTEP     50
Info: LAST LDB TIMESTEP     -1
Info: HOM BACKGROUND SCALING 1
Info: PME BACKGROUND SCALING 1
Info: MIN ATOMS PER PATCH    40
Info: EMPTY PATCH LOAD       40 ATOMS
Info: INITIAL TEMPERATURE    300
Info: CENTER OF MASS MOVING INITIALLY? NO
Info: DIELECTRIC             1
Info: EXCLUDE                SCALED ONE-FOUR
Info: 1-4 ELECTROSTATICS SCALED BY 0.833333
Info: MODIFIED 1-4 VDW PARAMETERS WILL BE USED
Info: DCD FILENAME           mobley_6896128_equil.dcd
Info: DCD FREQUENCY          5000
Info: DCD FIRST STEP         5000
Info: DCD FILE WILL CONTAIN UNIT CELL DATA
Info: XST FILENAME           mobley_6896128_equil.xst
Info: XST FREQUENCY          5000
Info: NO VELOCITY DCD OUTPUT
Info: NO FORCE DCD OUTPUT
Info: OUTPUT FILENAME        mobley_6896128_equil
Info: BINARY OUTPUT FILES WILL BE USED
Info: RESTART FILENAME       mobley_6896128_equil.restart
Info: RESTART FREQUENCY      5000
Info: BINARY RESTART FILES WILL BE USED
Info: CUTOFF                 9
Info: PAIRLIST DISTANCE      11
Info: PAIRLIST SHRINK RATE   0.01
Info: PAIRLIST GROW RATE     0.01
Info: PAIRLIST TRIGGER       0.3
Info: PAIRLISTS PER CYCLE    2
Info: PAIRLISTS ENABLED
Info: MARGIN                 8
Info: HYDROGEN GROUP CUTOFF  2.5
Info: PATCH DIMENSION        21.5
Info: ENERGY OUTPUT STEPS    5000
Info: ENERGY EVALUATION STEPS    5000
Info: OUTPUT ENERGY PRECISION 4
Info: CROSSTERM ENERGY INCLUDED IN DIHEDRAL
Info: TIMING OUTPUT STEPS    50000
Info: PRESSURE OUTPUT STEPS  5000
Info: LANGEVIN DYNAMICS ACTIVE
Info: LANGEVIN TEMPERATURE   30
Info: LANGEVIN USING BBK INTEGRATOR
Info: LANGEVIN DAMPING COEFFICIENT IS 1 INVERSE PS
Info: LANGEVIN DYNAMICS APPLIED TO HYDROGENS
Info: LANGEVIN PISTON PRESSURE CONTROL ACTIVE
Info:        TARGET PRESSURE IS 1.01325 BAR
Info:     OSCILLATION PERIOD IS 50 FS
Info:             DECAY TIME IS 25 FS
Info:     PISTON TEMPERATURE IS 300 K
Info:       PRESSURE CONTROL IS GROUP-BASED
Info:    INITIAL STRAIN RATE IS 0 0 0
Info:       CELL FLUCTUATION IS ISOTROPIC
Info: PARTICLE MESH EWALD (PME) ACTIVE
Info: PME TOLERANCE               1e-06
Info: PME EWALD COEFFICIENT       0.348832
Info: PME INTERPOLATION ORDER     4
Info: PME GRID DIMENSIONS         44 44 44
Info: PME MAXIMUM GRID SPACING    1
Info: FULL ELECTROSTATIC EVALUATION FREQUENCY      2
Info: USING VERLET I (r-RESPA) MTS SCHEME.
Info: C1 SPLITTING OF LONG RANGE ELECTROSTATICS
Info: PLACING ATOMS IN PATCHES BY HYDROGEN GROUPS
Info: RIGID BONDS TO HYDROGEN : ALL
Info:         ERROR TOLERANCE : 1e-08
Info:          MAX ITERATIONS : 100
Info: RIGID WATER USING SETTLE ALGORITHM
Info: RANDOM NUMBER SEED     1741393833
Info: USE HYDROGEN BONDS?    NO
Info: Using AMBER format force field!
Info: AMBER PARM FILE        mobley_6896128.prmtop
Info: COORDINATE PDB         mobley_6896128.pdb
Info: Exclusions will be read from PARM file!
Info: SCNB (VDW SCALING)     2
Info: USING ARITHMETIC MEAN TO COMBINE L-J SIGMA PARAMETERS
Info: BINARY COORDINATES     mobley_6896128_min.coor
Info: SUMMARY OF PARAMETERS:
Info: 4 BONDS
Info: 3 ANGLES
Info: 3 DIHEDRAL
Info: 0 IMPROPER
Info: 0 CROSSTERM
Info: 0 VDW
Info: 10 VDW_PAIRS
Info: 0 NBTHOLE_PAIRS
Info: STRUCTURE SUMMARY:
Info: 5312 ATOMS
Info: 5311 BONDS
Info: 48 ANGLES
Info: 63 DIHEDRALS
Info: 0 IMPROPERS
Info: 0 CROSSTERMS
Info: 5422 EXCLUSIONS
Info: 5304 RIGID BONDS
Info: 10632 DEGREES OF FREEDOM
Info: 1770 HYDROGEN GROUPS
Info: 4 ATOMS IN LARGEST HYDROGEN GROUP
Info: 1770 MIGRATION GROUPS
Info: 4 ATOMS IN LARGEST MIGRATION GROUP
Info: TOTAL MASS = 31858.4 amu
Info: TOTAL CHARGE = 0.000100002 e
Info: MASS DENSITY = 0.708358 g/cm^3
Info: ATOM DENSITY = 0.0711259 atoms/A^3
Info: ADDED 0 IMPLICIT EXCLUSIONS
Info: NONBONDED TABLE R-SQUARED SPACING: 0.0625
Info: NONBONDED TABLE SIZE: 705 POINTS
Info: REMOVING COM VELOCITY -0.0537158 0.0598334 -0.0380682
TCL: Running for 25000 steps
ETITLE: TS BOND ANGLE DIHED IMPRP ELECT VDW BOUNDARY MISC KINETIC TOTAL TEMP POTENTIAL TOTAL3 TEMPAVG PRESSURE GPRESSURE VOLUME PRESSAVG GPRESSAVG
ENERGY: 0 1.2732 1.0746 0.3865 0.0000 -24333.3481 4183.8003 0.0000 0.0000 3181.3855 -16965.4279 301.1561 -20146.8134 -16964.8025 301.1561 275.7847 319.3213 74684.4845 275.7847 319.3213
ENERGY: 5000 0.6649 1.9933 0.7831 0.0000 -25386.1320 4390.2425 0.0000 0.0000 325.7464 -20666.7018 30.8358 -20992.4482 -20665.9277 47.1177 -5.4196 70.8113 51908.3198 -1.4449 -1.5308
ENERGY: 10000 0.3903 1.8533 0.8281 0.0000 -25336.6316 4287.2409 0.0000 0.0000 318.3297 -20727.9894 30.1337 -21046.3191 -20727.0557 30.1406 -600.0052 -518.0549 52079.1947 1.3035 1.3940
ENERGY: 15000 0.0960 2.3247 0.3096 0.0000 -25540.6852 4484.2803 0.0000 0.0000 317.6171 -20736.0574 30.0663 -21053.6745 -20735.2048 29.7333 354.2243 416.8732 51814.0394 1.4532 1.6223
ENERGY: 20000 0.6088 2.2048 0.6340 0.0000 -25517.9053 4448.0468 0.0000 0.0000 320.4498 -20745.9611 30.3344 -21066.4109 -20745.1753 30.2925 80.4614 167.2024 51952.5082 6.4294 6.4168
ENERGY: 25000 0.4998 2.3111 0.3937 0.0000 -25515.8125 4429.0461 0.0000 0.0000 319.3602 -20764.2016 30.2313 -21083.5618 -20763.4113 30.1474 28.3921 90.9848 51810.6698 3.9416 3.7212
TCL: Running 25000 steps at 60 kelvin.
TCL: Setting parameter langevinTemp to 60
TCL: Running for 25000 steps
ETITLE: TS BOND ANGLE DIHED IMPRP ELECT VDW BOUNDARY MISC KINETIC TOTAL TEMP POTENTIAL TOTAL3 TEMPAVG PRESSURE GPRESSURE VOLUME PRESSAVG GPRESSAVG
ENERGY: 25000 0.4998 2.3111 0.3937 0.0000 -25515.8125 4429.0461 0.0000 0.0000 319.1960 -20764.3657 30.2157 -21083.5618 -20763.7412 30.2157 23.5239 90.9505 51810.6698 23.5239 90.9505
ENERGY: 30000 0.7946 3.4230 0.6838 0.0000 -25105.2203 4287.4288 0.0000 0.0000 623.1855 -20189.7046 58.9919 -20812.8900 -20188.3085 57.3659 -91.1831 -26.1083 52196.4666 5.5638 5.5915
ENERGY: 35000 0.8978 3.3869 1.6357 0.0000 -25181.1934 4342.2787 0.0000 0.0000 625.8212 -20207.1731 59.2414 -20832.9943 -20205.7210 60.1329 119.5162 206.3399 52118.0911 3.6502 3.7204
ENERGY: 40000 0.2644 3.3343 1.2914 0.0000 -25232.7934 4353.8850 0.0000 0.0000 630.6729 -20243.3454 59.7007 -20874.0183 -20241.4078 60.1842 161.7728 222.2082 52020.4225 3.0465 3.1384
ENERGY: 45000 0.6286 2.9994 0.7403 0.0000 -25226.2633 4313.5855 0.0000 0.0000 642.4677 -20265.8419 60.8172 -20908.3096 -20263.8372 60.1180 -84.8948 -41.6893 52043.9806 2.7962 3.0716
ENERGY: 50000 0.4889 3.2045 0.8196 0.0000 -25043.7031 4152.8961 0.0000 0.0000 633.1798 -20253.1141 59.9380 -20886.2939 -20251.2410 60.6789 -826.9371 -742.0073 52161.8485 2.2853 2.3056
TCL: Running 25000 steps at 90 kelvin.
TCL: Setting parameter langevinTemp to 90
TCL: Running for 25000 steps
ETITLE: TS BOND ANGLE DIHED IMPRP ELECT VDW BOUNDARY MISC KINETIC TOTAL TEMP POTENTIAL TOTAL3 TEMPAVG PRESSURE GPRESSURE VOLUME PRESSAVG GPRESSAVG
ENERGY: 50000 0.4889 3.2045 0.8196 0.0000 -25043.7031 4152.8961 0.0000 0.0000 632.8706 -20253.4232 59.9088 -20886.2939 -20251.9621 59.9088 -809.0678 -742.0327 52161.8485 -809.0678 -742.0327
ENERGY: 55000 1.4559 5.0490 1.4250 0.0000 -24850.4738 4223.7207 0.0000 0.0000 956.6601 -19662.1631 90.5593 -20618.8232 -19659.8686 86.7256 131.6977 206.1443 52030.6506 0.2147 0.1450
ENERGY: 60000 0.8648 3.0700 0.9506 0.0000 -24941.9406 4297.8566 0.0000 0.0000 952.1951 -19687.0036 90.1366 -20639.1986 -19684.5030 89.8924 359.5638 416.0783 52150.5590 3.5011 3.8744
ENERGY: 65000 0.5115 4.0910 0.4903 0.0000 -24980.9481 4325.5310 0.0000 0.0000 945.5043 -19704.8201 89.5033 -20650.3244 -19703.4508 90.2050 504.6955 559.4287 52111.0616 2.6886 2.5360
ENERGY: 70000 0.2786 5.0959 0.6667 0.0000 -24970.5228 4285.5808 0.0000 0.0000 959.3207 -19719.5801 90.8112 -20678.9008 -19717.1704 90.1091 313.8678 366.9704 51833.6336 0.5563 0.4434
ENERGY: 75000 1.0349 4.7307 0.8597 0.0000 -24828.6005 4100.7209 0.0000 0.0000 957.2586 -19763.9957 90.6160 -20721.2542 -19761.6221 90.0300 -692.3855 -626.0809 52091.7116 6.4229 6.3293
TCL: Running 25000 steps at 120 kelvin.
TCL: Setting parameter langevinTemp to 120
TCL: Running for 25000 steps
ETITLE: TS BOND ANGLE DIHED IMPRP ELECT VDW BOUNDARY MISC KINETIC TOTAL TEMP POTENTIAL TOTAL3 TEMPAVG PRESSURE GPRESSURE VOLUME PRESSAVG GPRESSAVG
ENERGY: 75000 1.0349 4.7307 0.8597 0.0000 -24828.6005 4100.7209 0.0000 0.0000 956.7819 -19764.4724 90.5708 -20721.2542 -19761.9802 90.5708 -685.6408 -625.9904 52091.7116 -685.6408 -625.9904
ENERGY: 80000 1.7637 7.1449 1.7188 0.0000 -24378.6515 3992.3317 0.0000 0.0000 1295.2531 -19080.4394 122.6112 -20375.6925 -19077.3186 117.5717 -438.1996 -384.8878 52338.3766 2.7148 2.5564
ENERGY: 85000 2.4375 4.4255 1.3437 0.0000 -24533.9472 4133.7159 0.0000 0.0000 1265.7428 -19126.2817 119.8177 -20392.0245 -19122.7629 120.8989 157.0162 207.5955 51967.7722 3.2566 3.0156
ENERGY: 90000 1.1506 5.7950 1.3585 0.0000 -24620.0951 4191.5748 0.0000 0.0000 1286.6544 -19133.5618 121.7972 -20420.2162 -19130.4896 119.4977 395.6606 442.5736 51892.4181 8.9337 8.4098
ENERGY: 95000 1.0226 6.1869 1.2316 0.0000 -24378.1580 3939.7330 0.0000 0.0000 1288.2909 -19141.6930 121.9521 -20429.9839 -19137.2201 120.3995 -739.6342 -657.0431 51870.3948 2.4372 2.5579
ENERGY: 100000 0.4677 3.9615 1.4746 0.0000 -24660.4177 4212.8540 0.0000 0.0000 1295.6650 -19145.9949 122.6502 -20441.6599 -19142.0994 120.8931 431.1218 478.1779 51864.6861 2.6938 2.2701
TCL: Running 25000 steps at 150 kelvin.
TCL: Setting parameter langevinTemp to 150
TCL: Running for 25000 steps
ETITLE: TS BOND ANGLE DIHED IMPRP ELECT VDW BOUNDARY MISC KINETIC TOTAL TEMP POTENTIAL TOTAL3 TEMPAVG PRESSURE GPRESSURE VOLUME PRESSAVG GPRESSAVG
ENERGY: 100000 0.4677 3.9615 1.4746 0.0000 -24660.4177 4212.8540 0.0000 0.0000 1295.0537 -19146.6062 122.5923 -20441.6599 -19144.1649 122.5923 416.6505 478.3092 51864.6861 416.6505 478.3092
ENERGY: 105000 1.4421 5.7329 0.6181 0.0000 -23998.8320 3956.8180 0.0000 0.0000 1572.1548 -18462.0662 148.8232 -20034.2209 -18458.2063 148.1107 122.9969 212.6993 51856.0831 3.3938 3.0706
ENERGY: 110000 0.4522 9.2519 0.8938 0.0000 -23985.7963 3917.8512 0.0000 0.0000 1589.2216 -18468.1256 150.4388 -20057.3472 -18464.1528 150.2686 -100.6427 -32.7124 51906.4569 4.1557 3.9763
ENERGY: 115000 0.9760 7.0941 1.0868 0.0000 -24068.6946 3929.2864 0.0000 0.0000 1619.8780 -18510.3734 153.3408 -20130.2514 -18505.3865 149.7426 -142.7322 -85.5222 51675.8918 2.0180 1.9174
ENERGY: 120000 1.9919 6.4141 0.6179 0.0000 -24105.5171 3979.8413 0.0000 0.0000 1575.9393 -18540.7126 149.1815 -20116.6519 -18536.7326 149.7721 64.8969 127.0827 51570.5991 2.6166 2.7733
ENERGY: 125000 0.9962 7.3604 1.1909 0.0000 -24201.8709 4033.7428 0.0000 0.0000 1577.0738 -18581.5068 149.2889 -20158.5806 -18577.4310 149.8515 257.3840 307.3467 51608.4267 2.7316 1.9173
TCL: Running 50000 steps at 180 kelvin.
TCL: Setting parameter langevinTemp to 180
TCL: Running for 50000 steps
ETITLE: TS BOND ANGLE DIHED IMPRP ELECT VDW BOUNDARY MISC KINETIC TOTAL TEMP POTENTIAL TOTAL3 TEMPAVG PRESSURE GPRESSURE VOLUME PRESSAVG GPRESSAVG
ENERGY: 125000 0.9962 7.3604 1.1909 0.0000 -24201.8709 4033.7428 0.0000 0.0000 1576.2801 -18582.3005 149.2137 -20158.5806 -18579.5356 149.2137 243.5974 307.7376 51608.4267 243.5974 307.7376
ENERGY: 135000 1.7092 7.1499 2.4222 0.0000 -23586.4219 3925.8406 0.0000 0.0000 1890.6961 -17758.6038 178.9770 -19649.2999 -17754.4781 179.8856 803.8570 897.0577 51589.6053 -0.1227 -0.0585
ENERGY: 145000 1.1952 6.8759 2.1684 0.0000 -23332.0939 3694.8332 0.0000 0.0000 1922.9428 -17704.0784 182.0295 -19627.0212 -17700.8059 180.4178 -216.5094 -146.2321 51719.4432 4.2283 3.8238
ENERGY: 155000 2.6952 6.8440 1.3659 0.0000 -23516.4540 3812.8403 0.0000 0.0000 1907.2664 -17785.4421 180.5455 -19692.7085 -17781.0801 179.1893 169.7311 226.8244 51901.6649 2.7933 2.7889
ENERGY: 165000 0.7101 8.1080 0.7949 0.0000 -23249.5364 3597.8164 0.0000 0.0000 1927.2881 -17714.8188 182.4408 -19642.1069 -17707.8059 181.3475 -775.1781 -735.3949 52290.5378 5.2098 5.4194
ENERGY: 175000 1.1149 12.0956 0.3000 0.0000 -23540.1967 3773.1161 0.0000 0.0000 1932.2377 -17821.3326 182.9094 -19753.5703 -17816.5158 180.1974 -107.6559 -58.8561 51785.3001 2.7327 2.4094
TCL: Running 50000 steps at 210 kelvin.
TCL: Setting parameter langevinTemp to 210
TCL: Running for 50000 steps
ETITLE: TS BOND ANGLE DIHED IMPRP ELECT VDW BOUNDARY MISC KINETIC TOTAL TEMP POTENTIAL TOTAL3 TEMPAVG PRESSURE GPRESSURE VOLUME PRESSAVG GPRESSAVG
ENERGY: 175000 1.1149 12.0956 0.3000 0.0000 -23540.1967 3773.1161 0.0000 0.0000 1931.2873 -17822.2829 182.8194 -19753.5703 -17819.2453 182.8194 -120.8957 -58.9813 51785.3001 -120.8957 -58.9813
ENERGY: 185000 1.0777 9.1886 1.3107 0.0000 -22526.2498 3495.2473 0.0000 0.0000 2196.3799 -16823.0455 207.9136 -19019.4255 -16818.6939 208.1669 84.6160 212.5062 51724.4852 1.5273 2.3148
ENERGY: 195000 1.3033 9.9952 1.7587 0.0000 -22286.9004 3398.5673 0.0000 0.0000 2189.5258 -16685.7501 207.2648 -18875.2759 -16681.4633 209.4831 -238.0175 -118.5392 52183.8998 1.9153 2.3815
ENERGY: 205000 1.5688 6.9237 1.9367 0.0000 -22304.0566 3323.0443 0.0000 0.0000 2256.9047 -16713.6783 213.6430 -18970.5830 -16707.3553 209.2472 -424.7733 -334.2451 51552.3115 0.7849 0.3227
ENERGY: 215000 3.1178 7.8614 1.2378 0.0000 -22375.5176 3422.2028 0.0000 0.0000 2275.4534 -16665.6444 215.3988 -18941.0978 -16660.4706 211.2312 20.8333 117.7968 51646.7000 1.8115 2.0973
ENERGY: 225000 1.7752 8.0946 1.1794 0.0000 -22289.5656 3297.9065 0.0000 0.0000 2177.6405 -16802.9693 206.1397 -18980.6098 -16799.6275 209.8376 -632.0181 -569.9654 51667.8929 2.5218 2.4982
TCL: Running 50000 steps at 240 kelvin.
TCL: Setting parameter langevinTemp to 240
TCL: Running for 50000 steps
ETITLE: TS BOND ANGLE DIHED IMPRP ELECT VDW BOUNDARY MISC KINETIC TOTAL TEMP POTENTIAL TOTAL3 TEMPAVG PRESSURE GPRESSURE VOLUME PRESSAVG GPRESSAVG
ENERGY: 225000 1.7752 8.0946 1.1794 0.0000 -22289.5656 3297.9065 0.0000 0.0000 2176.5086 -16804.1012 206.0325 -18980.6098 -16799.8639 206.0325 -651.5414 -570.7943 51667.8929 -651.5414 -570.7943
ENERGY: 235000 0.8315 11.8054 2.1175 0.0000 -21225.8151 3012.2090 0.0000 0.0000 2498.4846 -15700.3672 236.5114 -18198.8518 -15695.0161 239.8955 -498.8980 -392.3688 52326.4843 -0.3990 -0.6420
ENERGY: 245000 2.6065 8.9691 3.8303 0.0000 -21137.3433 3097.1135 0.0000 0.0000 2572.2374 -15452.5864 243.4930 -18024.8239 -15447.3730 238.9048 127.2473 235.5151 52481.9379 2.6373 2.2881
ENERGY: 255000 2.4576 12.1610 2.1272 0.0000 -21271.1601 3170.2456 0.0000 0.0000 2528.3925 -15555.7761 239.3425 -18084.1686 -15549.9450 240.5107 447.1086 537.8808 52148.2799 1.9751 1.9097
ENERGY: 265000 1.9427 8.5557 2.3564 0.0000 -21315.1294 3137.8402 0.0000 0.0000 2520.0916 -15644.3428 238.5568 -18164.4343 -15641.0660 238.4029 117.5769 207.3579 52318.9139 4.9000 4.6302
ENERGY: 275000 2.4618 6.5463 1.0743 0.0000 -21123.5570 3024.6095 0.0000 0.0000 2535.9296 -15552.9356 240.0560 -18088.8651 -15547.2463 240.7767 -422.5555 -335.6374 52563.1540 -0.1691 0.2011
TCL: Running 50000 steps at 270 kelvin.
TCL: Setting parameter langevinTemp to 270
TCL: Running for 50000 steps
ETITLE: TS BOND ANGLE DIHED IMPRP ELECT VDW BOUNDARY MISC KINETIC TOTAL TEMP POTENTIAL TOTAL3 TEMPAVG PRESSURE GPRESSURE VOLUME PRESSAVG GPRESSAVG
ENERGY: 275000 2.4618 6.5463 1.0743 0.0000 -21123.5570 3024.6095 0.0000 0.0000 2534.6825 -15554.1827 239.9380 -18088.8651 -15549.3871 239.9380 -413.9215 -336.2698 52563.1540 -413.9215 -336.2698
ENERGY: 285000 1.4279 14.3241 3.0583 0.0000 -20089.7076 2684.5180 0.0000 0.0000 2798.3675 -14588.0118 264.8989 -17386.3793 -14584.1234 269.6490 -693.8210 -579.7691 53397.6547 2.7209 2.7981
ENERGY: 295000 1.9658 10.8455 2.6327 0.0000 -20142.0133 2725.2898 0.0000 0.0000 2905.0183 -14496.2612 274.9947 -17401.2795 -14487.9765 269.9874 -314.9995 -253.9094 52824.4769 0.6938 1.2495
ENERGY: 305000 2.0326 12.7363 3.2229 0.0000 -20143.1862 2840.4624 0.0000 0.0000 2888.0098 -14396.7222 273.3846 -17284.7321 -14389.6898 270.1607 235.3852 334.0767 53172.7289 1.9591 1.8063
ENERGY: 315000 1.7767 10.9673 2.3926 0.0000 -20237.4146 2814.7928 0.0000 0.0000 2922.6172 -14484.8681 276.6606 -17407.4853 -14478.9482 271.1992 -93.9281 57.3311 53041.9502 5.2558 4.9391
ENERGY: 325000 1.7972 10.5276 3.4288 0.0000 -20269.0735 2844.4002 0.0000 0.0000 2779.7873 -14629.1323 263.1401 -17408.9196 -14623.1339 269.4705 -119.5375 -69.2446 53707.3670 1.7382 1.6600
TCL: Running 1000000 steps at 300 kelvin.
TCL: Setting parameter langevinTemp to 300
TCL: Running for 1000000 steps
ETITLE: TS BOND ANGLE DIHED IMPRP ELECT VDW BOUNDARY MISC KINETIC TOTAL TEMP POTENTIAL TOTAL3 TEMPAVG PRESSURE GPRESSURE VOLUME PRESSAVG GPRESSAVG
ENERGY: 325000 1.7972 10.5276 3.4288 0.0000 -20269.0735 2844.4002 0.0000 0.0000 2778.3587 -14630.5609 263.0048 -17408.9196 -14625.4062 263.0048 -156.9591 -69.7235 53707.3670 -156.9591 -69.7235
ENERGY: 525000 1.0220 11.5096 1.5967 0.0000 -19225.7239 2616.5041 0.0000 0.0000 3126.4795 -13468.6119 295.9586 -16595.0914 -13460.0045 300.3871 131.7493 232.6838 54431.4788 1.9327 2.2057
ENERGY: 725000 1.6659 11.3681 2.2807 0.0000 -19214.4599 2449.1841 0.0000 0.0000 3191.2722 -13558.6888 302.0920 -16749.9611 -13553.9402 298.2377 -990.0870 -888.3781 55634.9038 0.5890 0.4971
ENERGY: 925000 3.2448 11.6705 2.2623 0.0000 -19065.6193 2486.4228 0.0000 0.0000 3176.6122 -13385.4065 300.7043 -16562.0188 -13378.9462 300.7588 -343.2255 -266.1703 55023.1538 3.9661 4.0244
ENERGY: 1125000 0.9137 12.3176 2.1232 0.0000 -19277.2819 2567.8388 0.0000 0.0000 3100.1140 -13593.9745 293.4628 -16694.0885 -13586.5173 299.5609 -94.9151 -55.2966 54348.2683 0.3469 0.2493
ENERGY: 1325000 2.7286 14.0484 2.4099 0.0000 -19388.8436 2662.2616 0.0000 0.0000 3202.7981 -13504.5969 303.1831 -16707.3950 -13497.8608 300.0712 165.6453 264.4798 54743.2633 0.3368 0.5481
TCL: Exiting due to exit command.
