Info: SIMULATION PARAMETERS:
Info: TIMESTEP               2
Info: NUMBER OF STEPS        0
Info: STEPS PER CYCLE        10
Info: PERIODIC CELL BASIS 1  40.176 0 0
Info: PERIODIC CELL BASIS 2  0 37.835 0
Info: PERIODIC CELL BASIS 3  0 0 44.966
Info: PERIODIC CELL CENTER   0 0 0
Info: WRAPPING WATERS AROUND PERIODIC BOUNDARIES ON OUTPUT.
Info: WRAPPING ALL CLUSTERS AROUND PERIODIC BOUNDARIES ON OUTPUT.
Info: FIRST LDB TIMESTEP     50
Info: LAST LDB TIMESTEP     -1
Info: HOM BACKGROUND SCALING 1
Info: PME BACKGROUND SCALING 1
Info: MIN ATOMS PER PATCH    40
Info: EMPTY PATCH LOAD       40 ATOMS
Info: INITIAL TEMPERATURE    300
Info: CENTER OF MASS MOVING INITIALLY? NO
Info: DIELECTRIC             1
Info: EXCLUDE                SCALED ONE-FOUR
Info: 1-4 ELECTROSTATICS SCALED BY 0.833333
Info: MODIFIED 1-4 VDW PARAMETERS WILL BE USED
Info: DCD FILENAME           mobley_2005792_min.dcd
Info: DCD FREQUENCY          5000
Info: DCD FIRST STEP         5000
Info: DCD FILE WILL CONTAIN UNIT CELL DATA
Info: XST FILENAME           mobley_2005792_min.xst
Info: XST FREQUENCY          5000
Info: NO VELOCITY DCD OUTPUT
Info: NO FORCE DCD OUTPUT
Info: OUTPUT FILENAME        mobley_2005792_min
Info: BINARY OUTPUT FILES WILL BE USED
Info: RESTART FILENAME       mobley_2005792_min.restart
Info: RESTART FREQUENCY      5000
Info: BINARY RESTART FILES WILL BE USED
Info: CUTOFF                 9
Info: PAIRLIST DISTANCE      11
Info: PAIRLIST SHRINK RATE   0.01
Info: PAIRLIST GROW RATE     0.01
Info: PAIRLIST TRIGGER       0.3
Info: PAIRLISTS PER CYCLE    2
Info: PAIRLISTS ENABLED
Info: MARGIN                 8
Info: HYDROGEN GROUP CUTOFF  2.5
Info: PATCH DIMENSION        21.5
Info: ENERGY OUTPUT STEPS    5000
Info: ENERGY EVALUATION STEPS    5000
Info: OUTPUT ENERGY PRECISION 4
Info: CROSSTERM ENERGY INCLUDED IN DIHEDRAL
Info: TIMING OUTPUT STEPS    50000
Info: PRESSURE OUTPUT STEPS  5000
Info: LANGEVIN DYNAMICS ACTIVE
Info: LANGEVIN TEMPERATURE   300
Info: LANGEVIN USING BBK INTEGRATOR
Info: LANGEVIN DAMPING COEFFICIENT IS 1 INVERSE PS
Info: LANGEVIN DYNAMICS APPLIED TO HYDROGENS
Info: LANGEVIN PISTON PRESSURE CONTROL ACTIVE
Info:        TARGET PRESSURE IS 1.01325 BAR
Info:     OSCILLATION PERIOD IS 50 FS
Info:             DECAY TIME IS 25 FS
Info:     PISTON TEMPERATURE IS 300 K
Info:       PRESSURE CONTROL IS GROUP-BASED
Info:    INITIAL STRAIN RATE IS 0 0 0
Info:       CELL FLUCTUATION IS ISOTROPIC
Info: PARTICLE MESH EWALD (PME) ACTIVE
Info: PME TOLERANCE               1e-06
Info: PME EWALD COEFFICIENT       0.348832
Info: PME INTERPOLATION ORDER     4
Info: PME GRID DIMENSIONS         44 40 48
Info: PME MAXIMUM GRID SPACING    1
Info: FULL ELECTROSTATIC EVALUATION FREQUENCY      2
Info: USING VERLET I (r-RESPA) MTS SCHEME.
Info: C1 SPLITTING OF LONG RANGE ELECTROSTATICS
Info: PLACING ATOMS IN PATCHES BY HYDROGEN GROUPS
Info: RIGID BONDS TO HYDROGEN : ALL
Info:         ERROR TOLERANCE : 1e-08
Info:          MAX ITERATIONS : 100
Info: RIGID WATER USING SETTLE ALGORITHM
Info: RANDOM NUMBER SEED     1741318405
Info: USE HYDROGEN BONDS?    NO
Info: Using AMBER format force field!
Info: AMBER PARM FILE        mobley_2005792.prmtop
Info: COORDINATE PDB         mobley_2005792.pdb
Info: Exclusions will be read from PARM file!
Info: SCNB (VDW SCALING)     2
Info: USING ARITHMETIC MEAN TO COMBINE L-J SIGMA PARAMETERS
Info: SUMMARY OF PARAMETERS:
Info: 6 BONDS
Info: 6 ANGLES
Info:   6 HARMONIC
Info:   0 COSINE-BASED
Info: 3 DIHEDRAL
Info: 0 IMPROPER
Info: 0 CROSSTERM
Info: 0 VDW
Info: 10 VDW_PAIRS
Info: 0 NBTHOLE_PAIRS
Info: STRUCTURE SUMMARY:
Info: 4984 ATOMS
Info: 4985 BONDS
Info: 36 ANGLES
Info: 62 DIHEDRALS
Info: 0 IMPROPERS
Info: 0 CROSSTERMS
Info: 5067 EXCLUSIONS
Info: 4972 RIGID BONDS
Info: 9980 DEGREES OF FREEDOM
Info: 1666 HYDROGEN GROUPS
Info: 3 ATOMS IN LARGEST HYDROGEN GROUP
Info: 1666 MIGRATION GROUPS
Info: 3 ATOMS IN LARGEST MIGRATION GROUP
Info: TOTAL MASS = 29952.7 amu
Info: TOTAL CHARGE = -0.000199966 e
Info: MASS DENSITY = 0.727696 g/cm^3
Info: ATOM DENSITY = 0.0729178 atoms/A^3
Info: ADDED 0 IMPLICIT EXCLUSIONS
Info: NONBONDED TABLE R-SQUARED SPACING: 0.0625
Info: NONBONDED TABLE SIZE: 705 POINTS
Info: REMOVING COM VELOCITY -0.0733713 0.016471 0.0577179
TCL: Minimizing for 2000 steps
ETITLE: TS BOND ANGLE DIHED IMPRP ELECT VDW BOUNDARY MISC KINETIC TOTAL TEMP POTENTIAL TOTAL3 TEMPAVG PRESSURE GPRESSURE VOLUME PRESSAVG GPRESSAVG
ENERGY: 0 0.5451 0.3264 1.5315 0.0000 -15404.2695 1750.2430 0.0000 0.0000 0.0000 -13651.6234 0.0000 -13651.6234 -13651.6234 0.0000 11211.1557 -15581.9468 68350.9712 11211.1557 -15581.9468
ENERGY: 400 2.0029 2.3547 2.0846 0.0000 -20700.8710 2945.9688 0.0000 0.0000 0.0000 -17748.4601 0.0000 -17748.4601 -17748.4601 0.0000 15481.5257 10312.4455 68350.9712 15481.5257 10312.4455
ENERGY: 800 1.1396 0.7517 1.3134 0.0000 -21920.4091 3569.5615 0.0000 0.0000 0.0000 -18347.6429 0.0000 -18347.6429 -18347.6429 0.0000 18317.7617 12758.5842 68350.9712 18317.7617 12758.5842
ENERGY: 1200 1.7729 1.7776 1.3213 0.0000 -22431.4155 3796.0681 0.0000 0.0000 0.0000 -18630.4757 0.0000 -18630.4757 -18630.4757 0.0000 19429.1190 13799.2830 68350.9712 19429.1190 13799.2830
ENERGY: 1600 0.8379 0.3820 1.3307 0.0000 -22645.7251 3887.2644 0.0000 0.0000 0.0000 -18755.9102 0.0000 -18755.9102 -18755.9102 0.0000 19849.3381 13916.4698 68350.9712 19849.3381 13916.4698
ENERGY: 2000 1.0349 0.4789 0.9677 0.0000 -22780.8994 3927.2959 0.0000 0.0000 0.0000 -18851.1220 0.0000 -18851.1220 -18851.1220 0.0000 20056.2833 14173.0124 68350.9712 20056.2833 14173.0124
TCL: Exiting due to exit command.
Info: NAMD 3.0.1 for Linux-x86_64-multicore
Info: Please visit http://www.ks.uiuc.edu/Research/namd/
Info: for updates, documentation, and support information.
Info: Please cite Phillips et al., J. Chem. Phys. 153:044130 (2020) doi:10.1063/5.0014475
Info: in all publications reporting results obtained with NAMD.
Info: Based on Charm++/Converse 80000 for multicore-linux-x86_64-gcc
Info: Built Mon Oct 14 11:11:06 CDT 2024 by dhardy on athine.ks.uiuc.edu
Info: 1 NAMD  3.0.1  Linux-x86_64-multicore  16    k024  z5358697
Info: Running on 16 processors, 1 nodes, 1 physical nodes.
Info: CPU topology information available.
Info: Charm++/Converse parallel runtime startup completed at 0.0182448 s
Info: 1043.46 MB of memory in use based on /proc/self/stat
Info: Configuration file is mobley_2005792_equil.namd
Info: Working in the current directory /srv/scratch/z5358697/prod_prep_1/2005792
TCL: Running 25000 steps at 30 kelvin.
TCL: Suspending until startup complete.
Info: SIMULATION PARAMETERS:
Info: TIMESTEP               2
Info: NUMBER OF STEPS        0
Info: STEPS PER CYCLE        10
Info: PERIODIC CELL BASIS 1  40.176 0 0
Info: PERIODIC CELL BASIS 2  0 37.835 0
Info: PERIODIC CELL BASIS 3  0 0 44.966
Info: PERIODIC CELL CENTER   0 0 0
Info: WRAPPING WATERS AROUND PERIODIC BOUNDARIES ON OUTPUT.
Info: WRAPPING ALL CLUSTERS AROUND PERIODIC BOUNDARIES ON OUTPUT.
Info: FIRST LDB TIMESTEP     50
Info: LAST LDB TIMESTEP     -1
Info: HOM BACKGROUND SCALING 1
Info: PME BACKGROUND SCALING 1
Info: MIN ATOMS PER PATCH    40
Info: EMPTY PATCH LOAD       40 ATOMS
Info: INITIAL TEMPERATURE    300
Info: CENTER OF MASS MOVING INITIALLY? NO
Info: DIELECTRIC             1
Info: EXCLUDE                SCALED ONE-FOUR
Info: 1-4 ELECTROSTATICS SCALED BY 0.833333
Info: MODIFIED 1-4 VDW PARAMETERS WILL BE USED
Info: DCD FILENAME           mobley_2005792_equil.dcd
Info: DCD FREQUENCY          5000
Info: DCD FIRST STEP         5000
Info: DCD FILE WILL CONTAIN UNIT CELL DATA
Info: XST FILENAME           mobley_2005792_equil.xst
Info: XST FREQUENCY          5000
Info: NO VELOCITY DCD OUTPUT
Info: NO FORCE DCD OUTPUT
Info: OUTPUT FILENAME        mobley_2005792_equil
Info: BINARY OUTPUT FILES WILL BE USED
Info: RESTART FILENAME       mobley_2005792_equil.restart
Info: RESTART FREQUENCY      5000
Info: BINARY RESTART FILES WILL BE USED
Info: CUTOFF                 9
Info: PAIRLIST DISTANCE      11
Info: PAIRLIST SHRINK RATE   0.01
Info: PAIRLIST GROW RATE     0.01
Info: PAIRLIST TRIGGER       0.3
Info: PAIRLISTS PER CYCLE    2
Info: PAIRLISTS ENABLED
Info: MARGIN                 8
Info: HYDROGEN GROUP CUTOFF  2.5
Info: PATCH DIMENSION        21.5
Info: ENERGY OUTPUT STEPS    5000
Info: ENERGY EVALUATION STEPS    5000
Info: OUTPUT ENERGY PRECISION 4
Info: CROSSTERM ENERGY INCLUDED IN DIHEDRAL
Info: TIMING OUTPUT STEPS    50000
Info: PRESSURE OUTPUT STEPS  5000
Info: LANGEVIN DYNAMICS ACTIVE
Info: LANGEVIN TEMPERATURE   30
Info: LANGEVIN USING BBK INTEGRATOR
Info: LANGEVIN DAMPING COEFFICIENT IS 1 INVERSE PS
Info: LANGEVIN DYNAMICS APPLIED TO HYDROGENS
Info: LANGEVIN PISTON PRESSURE CONTROL ACTIVE
Info:        TARGET PRESSURE IS 1.01325 BAR
Info:     OSCILLATION PERIOD IS 50 FS
Info:             DECAY TIME IS 25 FS
Info:     PISTON TEMPERATURE IS 300 K
Info:       PRESSURE CONTROL IS GROUP-BASED
Info:    INITIAL STRAIN RATE IS 0 0 0
Info:       CELL FLUCTUATION IS ISOTROPIC
Info: PARTICLE MESH EWALD (PME) ACTIVE
Info: PME TOLERANCE               1e-06
Info: PME EWALD COEFFICIENT       0.348832
Info: PME INTERPOLATION ORDER     4
Info: PME GRID DIMENSIONS         44 40 48
Info: PME MAXIMUM GRID SPACING    1
Info: FULL ELECTROSTATIC EVALUATION FREQUENCY      2
Info: USING VERLET I (r-RESPA) MTS SCHEME.
Info: C1 SPLITTING OF LONG RANGE ELECTROSTATICS
Info: PLACING ATOMS IN PATCHES BY HYDROGEN GROUPS
Info: RIGID BONDS TO HYDROGEN : ALL
Info:         ERROR TOLERANCE : 1e-08
Info:          MAX ITERATIONS : 100
Info: RIGID WATER USING SETTLE ALGORITHM
Info: RANDOM NUMBER SEED     1741318426
Info: USE HYDROGEN BONDS?    NO
Info: Using AMBER format force field!
Info: AMBER PARM FILE        mobley_2005792.prmtop
Info: COORDINATE PDB         mobley_2005792.pdb
Info: Exclusions will be read from PARM file!
Info: SCNB (VDW SCALING)     2
Info: USING ARITHMETIC MEAN TO COMBINE L-J SIGMA PARAMETERS
Info: BINARY COORDINATES     mobley_2005792_min.coor
Info: SUMMARY OF PARAMETERS:
Info: 6 BONDS
Info: 6 ANGLES
Info:   6 HARMONIC
Info:   0 COSINE-BASED
Info: 3 DIHEDRAL
Info: 0 IMPROPER
Info: 0 CROSSTERM
Info: 0 VDW
Info: 10 VDW_PAIRS
Info: 0 NBTHOLE_PAIRS
Info: STRUCTURE SUMMARY:
Info: 4984 ATOMS
Info: 4985 BONDS
Info: 36 ANGLES
Info: 62 DIHEDRALS
Info: 0 IMPROPERS
Info: 0 CROSSTERMS
Info: 5067 EXCLUSIONS
Info: 4972 RIGID BONDS
Info: 9980 DEGREES OF FREEDOM
Info: 1666 HYDROGEN GROUPS
Info: 3 ATOMS IN LARGEST HYDROGEN GROUP
Info: 1666 MIGRATION GROUPS
Info: 3 ATOMS IN LARGEST MIGRATION GROUP
Info: TOTAL MASS = 29952.7 amu
Info: TOTAL CHARGE = -0.000199966 e
Info: MASS DENSITY = 0.727696 g/cm^3
Info: ATOM DENSITY = 0.0729178 atoms/A^3
Info: ADDED 0 IMPLICIT EXCLUSIONS
Info: NONBONDED TABLE R-SQUARED SPACING: 0.0625
Info: NONBONDED TABLE SIZE: 705 POINTS
Info: REMOVING COM VELOCITY 0.075603 0.0705794 0.113645
TCL: Running for 25000 steps
ETITLE: TS BOND ANGLE DIHED IMPRP ELECT VDW BOUNDARY MISC KINETIC TOTAL TEMP POTENTIAL TOTAL3 TEMPAVG PRESSURE GPRESSURE VOLUME PRESSAVG GPRESSAVG
ENERGY: 0 1.0349 0.4789 0.9677 0.0000 -22780.8994 3927.2959 0.0000 0.0000 2998.7835 -15852.3385 302.4161 -18851.1220 -15851.7400 302.4161 179.5718 211.8428 68350.9712 179.5718 211.8428
ENERGY: 5000 0.6564 0.4035 2.9396 0.0000 -23946.5329 4196.0150 0.0000 0.0000 309.5412 -19436.9772 31.2161 -19746.5184 -19435.9575 47.7905 483.6664 534.1274 47648.6095 -1.4475 -1.4210
ENERGY: 10000 0.8935 0.6163 3.7488 0.0000 -23796.8395 4022.4172 0.0000 0.0000 297.7868 -19471.3770 30.0307 -19769.1638 -19470.4014 30.2347 -565.4517 -523.3975 48078.2552 6.6563 6.6370
ENERGY: 15000 0.6148 1.0317 3.4652 0.0000 -24002.7831 4209.7543 0.0000 0.0000 297.0159 -19490.9012 29.9529 -19787.9171 -19490.0291 29.9415 517.0632 555.9955 47514.9271 8.0281 8.2082
ENERGY: 20000 0.4949 0.6700 2.7463 0.0000 -24034.7950 4233.2813 0.0000 0.0000 300.9953 -19496.6072 30.3543 -19797.6025 -19495.6150 29.9949 613.6036 676.8551 47499.6507 1.8651 1.7872
ENERGY: 25000 0.8013 0.7043 2.8307 0.0000 -23954.8226 4136.7427 0.0000 0.0000 303.6539 -19510.0897 30.6224 -19813.7436 -19509.0008 30.4303 19.2932 47.4307 47731.0358 5.5351 5.3658
TCL: Running 25000 steps at 60 kelvin.
TCL: Setting parameter langevinTemp to 60
TCL: Running for 25000 steps
ETITLE: TS BOND ANGLE DIHED IMPRP ELECT VDW BOUNDARY MISC KINETIC TOTAL TEMP POTENTIAL TOTAL3 TEMPAVG PRESSURE GPRESSURE VOLUME PRESSAVG GPRESSAVG
ENERGY: 25000 0.8013 0.7043 2.8307 0.0000 -23954.8226 4136.7427 0.0000 0.0000 303.5032 -19510.2404 30.6072 -19813.7436 -19509.4987 30.6072 -3.4170 47.7618 47731.0358 -3.4170 47.7618
ENERGY: 30000 1.1920 0.6396 4.5265 0.0000 -23579.0507 4022.2901 0.0000 0.0000 593.4609 -18956.9415 59.8483 -19550.4024 -18955.6788 57.6944 36.3872 92.1250 47906.0723 2.5981 2.5577
ENERGY: 35000 0.5363 1.5142 4.3063 0.0000 -23820.4454 4218.4635 0.0000 0.0000 592.5243 -19003.1007 59.7539 -19595.6250 -19001.9277 60.3467 1004.0424 1053.1054 47586.5957 3.1927 3.1783
ENERGY: 40000 1.8069 1.1946 4.1376 0.0000 -23616.6699 3990.8390 0.0000 0.0000 595.4434 -19023.2485 60.0482 -19618.6918 -19021.9111 60.1263 -345.1780 -305.9750 48096.3969 2.3973 2.4668
ENERGY: 45000 1.4314 0.8799 4.9856 0.0000 -23667.9356 4024.1128 0.0000 0.0000 588.2440 -19048.2819 59.3222 -19636.5259 -19047.1157 60.0226 -164.9513 -70.5890 47971.7643 6.7337 6.8811
ENERGY: 50000 1.6231 1.3182 3.8706 0.0000 -23574.1864 3903.4421 0.0000 0.0000 599.6331 -19064.2992 60.4708 -19663.9323 -19062.3774 60.1014 -918.2771 -851.1261 48142.3774 0.3841 0.3804
TCL: Running 25000 steps at 90 kelvin.
TCL: Setting parameter langevinTemp to 90
TCL: Running for 25000 steps
ETITLE: TS BOND ANGLE DIHED IMPRP ELECT VDW BOUNDARY MISC KINETIC TOTAL TEMP POTENTIAL TOTAL3 TEMPAVG PRESSURE GPRESSURE VOLUME PRESSAVG GPRESSAVG
ENERGY: 50000 1.6231 1.3182 3.8706 0.0000 -23574.1864 3903.4421 0.0000 0.0000 599.3358 -19064.5966 60.4408 -19663.9324 -19063.0744 60.4408 -917.4067 -851.2681 48142.3774 -917.4067 -851.2681
ENERGY: 55000 2.0323 2.7921 5.5302 0.0000 -23272.2437 3903.9516 0.0000 0.0000 885.7396 -18472.1979 89.3235 -19357.9375 -18469.4892 87.5811 -219.5194 -165.0266 48382.3382 4.6702 5.0288
ENERGY: 60000 0.7935 1.6742 4.4146 0.0000 -23267.4568 3827.2173 0.0000 0.0000 887.9303 -18545.4269 89.5445 -19433.3572 -18542.7018 90.4668 -712.3356 -626.2021 48255.2914 4.5026 4.3092
ENERGY: 65000 1.1741 1.7339 4.6038 0.0000 -23381.2863 3911.6840 0.0000 0.0000 926.6392 -18535.4513 93.4481 -19462.0905 -18532.5665 90.2731 -305.5267 -245.4986 48113.6960 5.6009 5.9228
ENERGY: 70000 1.0072 1.8471 5.3174 0.0000 -23438.2702 3955.5308 0.0000 0.0000 896.1903 -18578.3773 90.3775 -19474.5676 -18576.6841 89.8813 -69.7018 4.5961 48039.3279 1.3911 1.3629
ENERGY: 75000 1.5822 1.7212 4.7536 0.0000 -23530.9863 4045.2046 0.0000 0.0000 893.0004 -18584.7244 90.0558 -19477.7248 -18582.4219 89.9282 364.6964 417.8774 48106.6142 1.4708 1.7593
TCL: Running 25000 steps at 120 kelvin.
TCL: Setting parameter langevinTemp to 120
TCL: Running for 25000 steps
ETITLE: TS BOND ANGLE DIHED IMPRP ELECT VDW BOUNDARY MISC KINETIC TOTAL TEMP POTENTIAL TOTAL3 TEMPAVG PRESSURE GPRESSURE VOLUME PRESSAVG GPRESSAVG
ENERGY: 75000 1.5822 1.7212 4.7536 0.0000 -23530.9863 4045.2046 0.0000 0.0000 892.5513 -18585.1735 90.0105 -19477.7248 -18583.3180 90.0105 368.4944 418.2782 48106.6142 368.4944 418.2782
ENERGY: 80000 2.9371 2.0371 7.0210 0.0000 -23118.2015 3948.5028 0.0000 0.0000 1208.6553 -17949.0483 121.8884 -19157.7036 -17946.1347 117.9454 584.1803 638.7722 48121.3878 1.3537 1.2190
ENERGY: 85000 3.6631 2.4800 5.8316 0.0000 -22934.4693 3737.8185 0.0000 0.0000 1200.7192 -17983.9569 121.0880 -19184.6761 -17980.7494 120.7659 -662.2218 -633.1246 48547.5924 8.5445 8.6350
ENERGY: 90000 2.1139 1.0735 10.0156 0.0000 -22958.3437 3757.5736 0.0000 0.0000 1198.8630 -17988.7042 120.9009 -19187.5671 -17985.0335 120.2585 -527.8317 -496.7292 48485.3253 0.9608 0.8415
ENERGY: 95000 1.4721 2.3557 7.0033 0.0000 -23184.5745 3940.0601 0.0000 0.0000 1192.6673 -18041.0160 120.2760 -19233.6833 -18038.3596 120.8929 432.3407 481.6778 48096.8832 6.7010 6.9028
ENERGY: 100000 1.6339 1.6005 5.8137 0.0000 -23247.6077 3997.6541 0.0000 0.0000 1166.9147 -18073.9908 117.6790 -19240.9055 -18070.8178 119.1337 705.8716 751.8048 48007.4035 -2.7821 -2.5642
TCL: Running 25000 steps at 150 kelvin.
TCL: Setting parameter langevinTemp to 150
TCL: Running for 25000 steps
ETITLE: TS BOND ANGLE DIHED IMPRP ELECT VDW BOUNDARY MISC KINETIC TOTAL TEMP POTENTIAL TOTAL3 TEMPAVG PRESSURE GPRESSURE VOLUME PRESSAVG GPRESSAVG
ENERGY: 100000 1.6339 1.6005 5.8137 0.0000 -23247.6077 3997.6541 0.0000 0.0000 1166.3361 -18074.5694 117.6206 -19240.9055 -18072.5853 117.6206 705.9105 751.8490 48007.4035 705.9105 751.8490
ENERGY: 105000 1.9560 2.8681 4.3046 0.0000 -22669.6940 3810.7667 0.0000 0.0000 1531.2542 -17318.5444 154.4213 -18849.7986 -17315.2642 146.1512 473.7464 571.8477 48401.3269 1.1519 1.2596
ENERGY: 110000 2.4080 1.3535 7.0261 0.0000 -22623.9465 3707.6359 0.0000 0.0000 1488.7691 -17416.7539 150.1368 -18905.5230 -17412.8369 150.6815 -168.8692 -97.9969 48755.0852 3.5173 3.1093
ENERGY: 115000 2.1645 3.0600 5.2027 0.0000 -22604.6051 3685.6113 0.0000 0.0000 1520.6728 -17387.8937 153.3542 -18908.5665 -17386.8180 149.8307 -273.5520 -221.0558 48589.0154 6.2765 6.1199
ENERGY: 120000 1.8938 3.5539 5.9229 0.0000 -22688.4916 3720.0593 0.0000 0.0000 1436.6245 -17520.4371 144.8782 -18957.0616 -17516.8482 150.5019 -261.3364 -213.9128 48717.5277 5.6913 5.8477
ENERGY: 125000 1.0668 1.6459 5.3647 0.0000 -22538.5813 3539.2048 0.0000 0.0000 1457.8515 -17533.4475 147.0189 -18991.2990 -17529.4377 149.0426 -1206.9214 -1150.1910 49120.8494 2.7871 2.1495
TCL: Running 50000 steps at 180 kelvin.
TCL: Setting parameter langevinTemp to 180
TCL: Running for 50000 steps
ETITLE: TS BOND ANGLE DIHED IMPRP ELECT VDW BOUNDARY MISC KINETIC TOTAL TEMP POTENTIAL TOTAL3 TEMPAVG PRESSURE GPRESSURE VOLUME PRESSAVG GPRESSAVG
ENERGY: 125000 1.0668 1.6459 5.3647 0.0000 -22538.5813 3539.2048 0.0000 0.0000 1457.1144 -17534.1847 146.9446 -18991.2990 -17530.9153 146.9446 -1195.7635 -1149.6773 49120.8494 -1195.7635 -1149.6773
ENERGY: 135000 1.8013 2.7078 6.7881 0.0000 -22142.5897 3608.2832 0.0000 0.0000 1737.2910 -16785.7183 175.1993 -18523.0093 -16782.0560 179.6916 220.1290 290.8449 48707.1668 1.6530 1.6681
ENERGY: 145000 6.5596 3.4083 6.9058 0.0000 -22124.3905 3586.4817 0.0000 0.0000 1751.1579 -16769.8773 176.5977 -18521.0352 -16763.0776 180.6581 2.8382 62.2002 48727.7827 4.5303 4.2278
ENERGY: 155000 2.1520 7.6251 6.9490 0.0000 -21939.2958 3444.7472 0.0000 0.0000 1797.8769 -16679.9456 181.3092 -18477.8225 -16676.2420 180.5754 -432.8712 -357.7263 48582.6375 6.0597 5.4344
ENERGY: 165000 4.0779 3.6763 4.2762 0.0000 -21986.8745 3489.8310 0.0000 0.0000 1750.0630 -16734.9502 176.4873 -18485.0132 -16730.4470 180.4081 -287.1157 -216.3217 48468.2133 2.8764 2.8538
ENERGY: 175000 6.3942 4.7450 5.2067 0.0000 -22102.7904 3580.1784 0.0000 0.0000 1792.4712 -16713.7949 180.7640 -18506.2662 -16707.5307 179.8116 40.4250 131.5098 48565.7555 4.1183 4.2176
TCL: Running 50000 steps at 210 kelvin.
TCL: Setting parameter langevinTemp to 210
TCL: Running for 50000 steps
ETITLE: TS BOND ANGLE DIHED IMPRP ELECT VDW BOUNDARY MISC KINETIC TOTAL TEMP POTENTIAL TOTAL3 TEMPAVG PRESSURE GPRESSURE VOLUME PRESSAVG GPRESSAVG
ENERGY: 175000 6.3942 4.7450 5.2067 0.0000 -22102.7904 3580.1784 0.0000 0.0000 1791.5777 -16714.6885 180.6739 -18506.2662 -16711.9829 180.6739 65.0893 133.1931 48565.7555 65.0893 133.1931
ENERGY: 185000 2.0895 5.5521 3.9959 0.0000 -21117.9223 3272.9147 0.0000 0.0000 2073.3622 -15760.0079 209.0908 -17833.3701 -15755.4637 209.7526 311.5506 387.9326 47999.8540 -0.2096 0.1462
ENERGY: 195000 1.4764 3.0904 3.9822 0.0000 -21225.6470 3436.7068 0.0000 0.0000 2111.5449 -15668.8463 212.9414 -17780.3912 -15664.3542 209.0077 1162.8884 1185.6722 48303.9259 1.6784 1.8003
ENERGY: 205000 2.3726 6.8397 5.2021 0.0000 -21156.8080 3329.0562 0.0000 0.0000 2078.1170 -15735.2203 209.5704 -17813.3374 -15730.9808 210.3867 234.8949 308.6030 48882.9639 4.7103 4.2296
ENERGY: 215000 1.8777 5.9064 5.6643 0.0000 -20941.5304 3132.2465 0.0000 0.0000 2107.9165 -15687.9191 212.5755 -17795.8356 -15683.5480 209.7731 -506.5583 -390.9679 48572.5562 4.6410 4.7271
ENERGY: 225000 3.6493 4.0453 5.5057 0.0000 -21003.5597 3255.4512 0.0000 0.0000 2101.8729 -15633.0353 211.9660 -17734.9081 -15629.1961 211.0078 394.0068 480.3024 48201.0659 3.2835 3.0526
TCL: Running 50000 steps at 240 kelvin.
TCL: Setting parameter langevinTemp to 240
TCL: Running for 50000 steps
ETITLE: TS BOND ANGLE DIHED IMPRP ELECT VDW BOUNDARY MISC KINETIC TOTAL TEMP POTENTIAL TOTAL3 TEMPAVG PRESSURE GPRESSURE VOLUME PRESSAVG GPRESSAVG
ENERGY: 225000 3.6493 4.0453 5.5057 0.0000 -21003.5597 3255.4512 0.0000 0.0000 2100.8335 -15634.0746 211.8612 -17734.9081 -15630.0725 211.8612 398.2996 480.1044 48201.0659 398.2996 480.1044
ENERGY: 235000 3.4955 3.3191 8.1702 0.0000 -20104.1418 3064.2786 0.0000 0.0000 2366.0854 -14658.7931 238.6109 -17024.8785 -14656.2677 241.3227 538.5215 603.7717 49384.4108 4.7069 4.3658
ENERGY: 245000 5.4948 5.1415 4.8517 0.0000 -19766.7604 2796.5084 0.0000 0.0000 2417.4095 -14537.3545 243.7867 -16954.7640 -14532.6114 239.4646 -641.8248 -582.5370 49612.7458 -2.5591 -2.6908
ENERGY: 255000 2.2327 2.0226 5.3957 0.0000 -19983.8614 2955.9122 0.0000 0.0000 2385.3895 -14632.9086 240.5576 -17018.2981 -14624.3264 240.0997 155.2679 210.0266 49179.2408 -1.1027 -1.3124
ENERGY: 265000 5.6753 2.2401 4.4014 0.0000 -20014.6858 2942.6629 0.0000 0.0000 2406.0065 -14653.6996 242.6368 -17059.7061 -14647.1166 239.9605 97.4720 205.2360 48828.5641 0.9102 1.0749
ENERGY: 275000 3.0436 4.0223 5.9824 0.0000 -19848.3058 2837.0752 0.0000 0.0000 2327.7492 -14670.4332 234.7448 -16998.1823 -14665.8610 240.4579 -537.1408 -454.9081 49419.4897 2.1217 2.4325
TCL: Running 50000 steps at 270 kelvin.
TCL: Setting parameter langevinTemp to 270
TCL: Running for 50000 steps
ETITLE: TS BOND ANGLE DIHED IMPRP ELECT VDW BOUNDARY MISC KINETIC TOTAL TEMP POTENTIAL TOTAL3 TEMPAVG PRESSURE GPRESSURE VOLUME PRESSAVG GPRESSAVG
ENERGY: 275000 3.0436 4.0223 5.9824 0.0000 -19848.3058 2837.0752 0.0000 0.0000 2326.5615 -14671.6208 234.6250 -16998.1823 -14667.5992 234.6250 -533.6654 -455.5705 49419.4897 -533.6654 -455.5705
ENERGY: 285000 5.2786 3.8310 7.9756 0.0000 -18927.4684 2652.7936 0.0000 0.0000 2666.8122 -13590.7774 268.9381 -16257.5896 -13581.9463 269.5909 -30.6486 37.5887 50251.9678 1.0675 1.0195
ENERGY: 295000 4.8297 6.3429 8.5030 0.0000 -18827.1767 2530.8355 0.0000 0.0000 2665.5091 -13611.1564 268.8067 -16276.6656 -13603.7273 270.8970 -447.1030 -352.6501 49781.9986 -0.1300 -0.3014
ENERGY: 305000 3.6860 2.1081 7.4582 0.0000 -19030.3825 2791.8297 0.0000 0.0000 2697.8691 -13527.4313 272.0700 -16225.3004 -13521.6233 270.8073 704.9273 785.0710 50038.0582 5.6237 5.6693
ENERGY: 315000 3.6308 4.3396 9.2349 0.0000 -18950.3814 2699.6950 0.0000 0.0000 2743.2746 -13490.2066 276.6490 -16233.4811 -13482.3633 270.4442 278.2221 416.6738 49906.5387 3.4790 3.4401
ENERGY: 325000 2.7320 3.3064 3.8046 0.0000 -18778.4141 2580.6512 0.0000 0.0000 2658.7564 -13529.1635 268.1257 -16187.9198 -13522.0218 269.7018 -129.0237 -115.4068 50249.1025 5.6543 5.1465
TCL: Running 1000000 steps at 300 kelvin.
TCL: Setting parameter langevinTemp to 300
TCL: Running for 1000000 steps
ETITLE: TS BOND ANGLE DIHED IMPRP ELECT VDW BOUNDARY MISC KINETIC TOTAL TEMP POTENTIAL TOTAL3 TEMPAVG PRESSURE GPRESSURE VOLUME PRESSAVG GPRESSAVG
ENERGY: 325000 2.7320 3.3064 3.8046 0.0000 -18778.4141 2580.6512 0.0000 0.0000 2657.4286 -13530.4913 267.9918 -16187.9198 -13525.7592 267.9918 -193.2748 -115.4674 50249.1025 -193.2748 -115.4674
ENERGY: 525000 2.6107 6.6297 8.2921 0.0000 -18098.8919 2407.5716 0.0000 0.0000 2969.0641 -12704.7238 299.4190 -15673.7879 -12699.6860 300.8471 -410.9532 -365.5073 51961.9683 2.8979 3.1252
ENERGY: 725000 4.8243 5.4859 8.0717 0.0000 -18203.9308 2527.6683 0.0000 0.0000 2986.9233 -12670.9573 301.2201 -15657.8806 -12667.3514 299.8243 549.0521 583.1411 50871.5952 1.2444 1.5727
ENERGY: 925000 3.3887 6.7351 9.6846 0.0000 -18026.5229 2377.0488 0.0000 0.0000 2992.1486 -12637.5172 301.7470 -15629.6658 -12633.0090 300.1150 -442.4127 -319.3645 51786.1439 0.0406 -0.8843
ENERGY: 1125000 6.2106 5.7021 9.0355 0.0000 -18090.9641 2439.3556 0.0000 0.0000 2975.6264 -12655.0339 300.0808 -15630.6603 -12649.0497 300.5151 52.9099 159.4285 51292.2038 3.5575 3.0139
ENERGY: 1325000 3.4201 4.9371 7.7726 0.0000 -17998.6457 2454.5094 0.0000 0.0000 2987.0412 -12540.9652 301.2320 -15528.0065 -12536.8454 301.7317 381.2020 464.3080 50892.2467 -0.9984 -1.1672
TCL: Exiting due to exit command.
