Info: SIMULATION PARAMETERS:
Info: TIMESTEP               2
Info: NUMBER OF STEPS        0
Info: STEPS PER CYCLE        10
Info: PERIODIC CELL BASIS 1  40.176 0 0
Info: PERIODIC CELL BASIS 2  0 38.307 0
Info: PERIODIC CELL BASIS 3  0 0 38.954
Info: PERIODIC CELL CENTER   0 0 0
Info: WRAPPING WATERS AROUND PERIODIC BOUNDARIES ON OUTPUT.
Info: WRAPPING ALL CLUSTERS AROUND PERIODIC BOUNDARIES ON OUTPUT.
Info: FIRST LDB TIMESTEP     50
Info: LAST LDB TIMESTEP     -1
Info: HOM BACKGROUND SCALING 1
Info: PME BACKGROUND SCALING 1
Info: MIN ATOMS PER PATCH    40
Info: EMPTY PATCH LOAD       40 ATOMS
Info: INITIAL TEMPERATURE    300
Info: CENTER OF MASS MOVING INITIALLY? NO
Info: DIELECTRIC             1
Info: EXCLUDE                SCALED ONE-FOUR
Info: 1-4 ELECTROSTATICS SCALED BY 0.833333
Info: MODIFIED 1-4 VDW PARAMETERS WILL BE USED
Info: DCD FILENAME           mobley_1107178_min.dcd
Info: DCD FREQUENCY          5000
Info: DCD FIRST STEP         5000
Info: DCD FILE WILL CONTAIN UNIT CELL DATA
Info: XST FILENAME           mobley_1107178_min.xst
Info: XST FREQUENCY          5000
Info: NO VELOCITY DCD OUTPUT
Info: NO FORCE DCD OUTPUT
Info: OUTPUT FILENAME        mobley_1107178_min
Info: BINARY OUTPUT FILES WILL BE USED
Info: RESTART FILENAME       mobley_1107178_min.restart
Info: RESTART FREQUENCY      5000
Info: BINARY RESTART FILES WILL BE USED
Info: CUTOFF                 9
Info: PAIRLIST DISTANCE      11
Info: PAIRLIST SHRINK RATE   0.01
Info: PAIRLIST GROW RATE     0.01
Info: PAIRLIST TRIGGER       0.3
Info: PAIRLISTS PER CYCLE    2
Info: PAIRLISTS ENABLED
Info: MARGIN                 8
Info: HYDROGEN GROUP CUTOFF  2.5
Info: PATCH DIMENSION        21.5
Info: ENERGY OUTPUT STEPS    5000
Info: ENERGY EVALUATION STEPS    5000
Info: OUTPUT ENERGY PRECISION 4
Info: CROSSTERM ENERGY INCLUDED IN DIHEDRAL
Info: TIMING OUTPUT STEPS    50000
Info: PRESSURE OUTPUT STEPS  5000
Info: LANGEVIN DYNAMICS ACTIVE
Info: LANGEVIN TEMPERATURE   300
Info: LANGEVIN USING BBK INTEGRATOR
Info: LANGEVIN DAMPING COEFFICIENT IS 1 INVERSE PS
Info: LANGEVIN DYNAMICS APPLIED TO HYDROGENS
Info: LANGEVIN PISTON PRESSURE CONTROL ACTIVE
Info:        TARGET PRESSURE IS 1.01325 BAR
Info:     OSCILLATION PERIOD IS 50 FS
Info:             DECAY TIME IS 25 FS
Info:     PISTON TEMPERATURE IS 300 K
Info:       PRESSURE CONTROL IS GROUP-BASED
Info:    INITIAL STRAIN RATE IS 0 0 0
Info:       CELL FLUCTUATION IS ISOTROPIC
Info: PARTICLE MESH EWALD (PME) ACTIVE
Info: PME TOLERANCE               1e-06
Info: PME EWALD COEFFICIENT       0.348832
Info: PME INTERPOLATION ORDER     4
Info: PME GRID DIMENSIONS         44 40 40
Info: PME MAXIMUM GRID SPACING    1
Info: FULL ELECTROSTATIC EVALUATION FREQUENCY      2
Info: USING VERLET I (r-RESPA) MTS SCHEME.
Info: C1 SPLITTING OF LONG RANGE ELECTROSTATICS
Info: PLACING ATOMS IN PATCHES BY HYDROGEN GROUPS
Info: RIGID BONDS TO HYDROGEN : ALL
Info:         ERROR TOLERANCE : 1e-08
Info:          MAX ITERATIONS : 100
Info: RIGID WATER USING SETTLE ALGORITHM
Info: RANDOM NUMBER SEED     1741309220
Info: USE HYDROGEN BONDS?    NO
Info: Using AMBER format force field!
Info: AMBER PARM FILE        mobley_1107178.prmtop
Info: COORDINATE PDB         mobley_1107178.pdb
Info: Exclusions will be read from PARM file!
Info: SCNB (VDW SCALING)     2
Info: USING ARITHMETIC MEAN TO COMBINE L-J SIGMA PARAMETERS
Info: SUMMARY OF PARAMETERS:
Info: 6 BONDS
Info: 6 ANGLES
Info:   6 HARMONIC
Info:   0 COSINE-BASED
Info: 2 DIHEDRAL
Info: 0 IMPROPER
Info: 0 CROSSTERM
Info: 0 VDW
Info: 21 VDW_PAIRS
Info: 0 NBTHOLE_PAIRS
Info: STRUCTURE SUMMARY:
Info: 4274 ATOMS
Info: 4273 BONDS
Info: 12 ANGLES
Info: 9 DIHEDRALS
Info: 0 IMPROPERS
Info: 0 CROSSTERMS
Info: 4294 EXCLUSIONS
Info: 4271 RIGID BONDS
Info: 8551 DEGREES OF FREEDOM
Info: 1425 HYDROGEN GROUPS
Info: 4 ATOMS IN LARGEST HYDROGEN GROUP
Info: 1425 MIGRATION GROUPS
Info: 4 ATOMS IN LARGEST MIGRATION GROUP
Info: TOTAL MASS = 25774.7 amu
Info: TOTAL CHARGE = 0.000100002 e
Info: MASS DENSITY = 0.713931 g/cm^3
Info: ATOM DENSITY = 0.0712915 atoms/A^3
Info: ADDED 0 IMPLICIT EXCLUSIONS
Info: NONBONDED TABLE R-SQUARED SPACING: 0.0625
Info: NONBONDED TABLE SIZE: 705 POINTS
Info: REMOVING COM VELOCITY -0.00595805 -0.141781 0.00570239
TCL: Minimizing for 2000 steps
ETITLE: TS BOND ANGLE DIHED IMPRP ELECT VDW BOUNDARY MISC KINETIC TOTAL TEMP POTENTIAL TOTAL3 TEMPAVG PRESSURE GPRESSURE VOLUME PRESSAVG GPRESSAVG
ENERGY: 0 0.9063 0.7742 0.0024 0.0000 -13248.3660 1526.6911 0.0000 0.0000 0.0000 -11719.9919 0.0000 -11719.9919 -11719.9919 0.0000 10951.4108 -15486.6991 59951.0642 10951.4108 -15486.6991
ENERGY: 400 1.6347 1.2168 0.0256 0.0000 -18236.0409 2787.4035 0.0000 0.0000 0.0000 -15445.7603 0.0000 -15445.7603 -15445.7603 0.0000 16392.9153 16502.8667 59951.0642 16392.9153 16502.8667
ENERGY: 800 20.7674 10.2551 0.0530 0.0000 -18972.1123 3094.2328 0.0000 0.0000 0.0000 -15846.8041 0.0000 -15846.8041 -15846.8041 0.0000 17980.6201 18156.1741 59951.0642 17980.6201 18156.1741
ENERGY: 1200 0.1452 0.3474 0.0084 0.0000 -19395.9261 3305.7661 0.0000 0.0000 0.0000 -16089.6590 0.0000 -16089.6590 -16089.6590 0.0000 19246.0107 19347.4195 59951.0642 19246.0107 19347.4195
ENERGY: 1600 0.1158 0.4487 0.0151 0.0000 -19590.6257 3388.8228 0.0000 0.0000 0.0000 -16201.2232 0.0000 -16201.2232 -16201.2232 0.0000 19737.7407 19822.5188 59951.0642 19737.7407 19822.5188
ENERGY: 2000 0.0276 0.2556 0.0067 0.0000 -19693.6560 3422.0019 0.0000 0.0000 0.0000 -16271.3642 0.0000 -16271.3642 -16271.3642 0.0000 19923.4833 20006.7520 59951.0642 19923.4833 20006.7520
TCL: Exiting due to exit command.
Info: NAMD 3.0.1 for Linux-x86_64-multicore
Info: Please visit http://www.ks.uiuc.edu/Research/namd/
Info: for updates, documentation, and support information.
Info: Please cite Phillips et al., J. Chem. Phys. 153:044130 (2020) doi:10.1063/5.0014475
Info: in all publications reporting results obtained with NAMD.
Info: Based on Charm++/Converse 80000 for multicore-linux-x86_64-gcc
Info: Built Mon Oct 14 11:11:06 CDT 2024 by dhardy on athine.ks.uiuc.edu
Info: 1 NAMD  3.0.1  Linux-x86_64-multicore  16    k064  z5358697
Info: Running on 16 processors, 1 nodes, 1 physical nodes.
Info: CPU topology information available.
Info: Charm++/Converse parallel runtime startup completed at 0.00801915 s
Info: 1043.46 MB of memory in use based on /proc/self/stat
Info: Configuration file is mobley_1107178_equil.namd
Info: Working in the current directory /srv/scratch/z5358697/prod_prep/1107178
TCL: Running 25000 steps at 30 kelvin.
TCL: Suspending until startup complete.
Info: SIMULATION PARAMETERS:
Info: TIMESTEP               2
Info: NUMBER OF STEPS        0
Info: STEPS PER CYCLE        10
Info: PERIODIC CELL BASIS 1  40.176 0 0
Info: PERIODIC CELL BASIS 2  0 38.307 0
Info: PERIODIC CELL BASIS 3  0 0 38.954
Info: PERIODIC CELL CENTER   0 0 0
Info: WRAPPING WATERS AROUND PERIODIC BOUNDARIES ON OUTPUT.
Info: WRAPPING ALL CLUSTERS AROUND PERIODIC BOUNDARIES ON OUTPUT.
Info: FIRST LDB TIMESTEP     50
Info: LAST LDB TIMESTEP     -1
Info: HOM BACKGROUND SCALING 1
Info: PME BACKGROUND SCALING 1
Info: MIN ATOMS PER PATCH    40
Info: EMPTY PATCH LOAD       40 ATOMS
Info: INITIAL TEMPERATURE    300
Info: CENTER OF MASS MOVING INITIALLY? NO
Info: DIELECTRIC             1
Info: EXCLUDE                SCALED ONE-FOUR
Info: 1-4 ELECTROSTATICS SCALED BY 0.833333
Info: MODIFIED 1-4 VDW PARAMETERS WILL BE USED
Info: DCD FILENAME           mobley_1107178_equil.dcd
Info: DCD FREQUENCY          5000
Info: DCD FIRST STEP         5000
Info: DCD FILE WILL CONTAIN UNIT CELL DATA
Info: XST FILENAME           mobley_1107178_equil.xst
Info: XST FREQUENCY          5000
Info: NO VELOCITY DCD OUTPUT
Info: NO FORCE DCD OUTPUT
Info: OUTPUT FILENAME        mobley_1107178_equil
Info: BINARY OUTPUT FILES WILL BE USED
Info: RESTART FILENAME       mobley_1107178_equil.restart
Info: RESTART FREQUENCY      5000
Info: BINARY RESTART FILES WILL BE USED
Info: CUTOFF                 9
Info: PAIRLIST DISTANCE      11
Info: PAIRLIST SHRINK RATE   0.01
Info: PAIRLIST GROW RATE     0.01
Info: PAIRLIST TRIGGER       0.3
Info: PAIRLISTS PER CYCLE    2
Info: PAIRLISTS ENABLED
Info: MARGIN                 8
Info: HYDROGEN GROUP CUTOFF  2.5
Info: PATCH DIMENSION        21.5
Info: ENERGY OUTPUT STEPS    5000
Info: ENERGY EVALUATION STEPS    5000
Info: OUTPUT ENERGY PRECISION 4
Info: CROSSTERM ENERGY INCLUDED IN DIHEDRAL
Info: TIMING OUTPUT STEPS    50000
Info: PRESSURE OUTPUT STEPS  5000
Info: LANGEVIN DYNAMICS ACTIVE
Info: LANGEVIN TEMPERATURE   30
Info: LANGEVIN USING BBK INTEGRATOR
Info: LANGEVIN DAMPING COEFFICIENT IS 1 INVERSE PS
Info: LANGEVIN DYNAMICS APPLIED TO HYDROGENS
Info: LANGEVIN PISTON PRESSURE CONTROL ACTIVE
Info:        TARGET PRESSURE IS 1.01325 BAR
Info:     OSCILLATION PERIOD IS 50 FS
Info:             DECAY TIME IS 25 FS
Info:     PISTON TEMPERATURE IS 300 K
Info:       PRESSURE CONTROL IS GROUP-BASED
Info:    INITIAL STRAIN RATE IS 0 0 0
Info:       CELL FLUCTUATION IS ISOTROPIC
Info: PARTICLE MESH EWALD (PME) ACTIVE
Info: PME TOLERANCE               1e-06
Info: PME EWALD COEFFICIENT       0.348832
Info: PME INTERPOLATION ORDER     4
Info: PME GRID DIMENSIONS         44 40 40
Info: PME MAXIMUM GRID SPACING    1
Info: FULL ELECTROSTATIC EVALUATION FREQUENCY      2
Info: USING VERLET I (r-RESPA) MTS SCHEME.
Info: C1 SPLITTING OF LONG RANGE ELECTROSTATICS
Info: PLACING ATOMS IN PATCHES BY HYDROGEN GROUPS
Info: RIGID BONDS TO HYDROGEN : ALL
Info:         ERROR TOLERANCE : 1e-08
Info:          MAX ITERATIONS : 100
Info: RIGID WATER USING SETTLE ALGORITHM
Info: RANDOM NUMBER SEED     1741309238
Info: USE HYDROGEN BONDS?    NO
Info: Using AMBER format force field!
Info: AMBER PARM FILE        mobley_1107178.prmtop
Info: COORDINATE PDB         mobley_1107178.pdb
Info: Exclusions will be read from PARM file!
Info: SCNB (VDW SCALING)     2
Info: USING ARITHMETIC MEAN TO COMBINE L-J SIGMA PARAMETERS
Info: BINARY COORDINATES     mobley_1107178_min.coor
Info: SUMMARY OF PARAMETERS:
Info: 6 BONDS
Info: 6 ANGLES
Info:   6 HARMONIC
Info:   0 COSINE-BASED
Info: 2 DIHEDRAL
Info: 0 IMPROPER
Info: 0 CROSSTERM
Info: 0 VDW
Info: 21 VDW_PAIRS
Info: 0 NBTHOLE_PAIRS
Info: STRUCTURE SUMMARY:
Info: 4274 ATOMS
Info: 4273 BONDS
Info: 12 ANGLES
Info: 9 DIHEDRALS
Info: 0 IMPROPERS
Info: 0 CROSSTERMS
Info: 4294 EXCLUSIONS
Info: 4271 RIGID BONDS
Info: 8551 DEGREES OF FREEDOM
Info: 1425 HYDROGEN GROUPS
Info: 4 ATOMS IN LARGEST HYDROGEN GROUP
Info: 1425 MIGRATION GROUPS
Info: 4 ATOMS IN LARGEST MIGRATION GROUP
Info: TOTAL MASS = 25774.7 amu
Info: TOTAL CHARGE = 0.000100002 e
Info: MASS DENSITY = 0.713931 g/cm^3
Info: ATOM DENSITY = 0.0712915 atoms/A^3
Info: ADDED 0 IMPLICIT EXCLUSIONS
Info: NONBONDED TABLE R-SQUARED SPACING: 0.0625
Info: NONBONDED TABLE SIZE: 705 POINTS
Info: REMOVING COM VELOCITY 0.171453 -0.0914571 0.114074
TCL: Running for 25000 steps
ETITLE: TS BOND ANGLE DIHED IMPRP ELECT VDW BOUNDARY MISC KINETIC TOTAL TEMP POTENTIAL TOTAL3 TEMPAVG PRESSURE GPRESSURE VOLUME PRESSAVG GPRESSAVG
ENERGY: 0 0.0276 0.2556 0.0067 0.0000 -19693.6560 3422.0019 0.0000 0.0000 2593.2676 -13678.0966 305.2255 -16271.3642 -13677.5886 305.2255 294.5235 328.4410 59951.0642 294.5235 328.4410
ENERGY: 5000 0.2182 0.7144 0.0189 0.0000 -20485.0064 3495.3014 0.0000 0.0000 259.0787 -16729.6747 30.4934 -16988.7535 -16729.0958 47.9195 -561.9959 -502.3495 42073.4671 3.5644 3.6129
ENERGY: 10000 0.0687 0.4638 0.0262 0.0000 -20709.2575 3696.4073 0.0000 0.0000 261.8793 -16750.4123 30.8230 -17012.2915 -16749.7987 30.0448 617.0601 675.1964 41636.2163 -0.7268 -0.7982
ENERGY: 15000 0.0782 0.5667 0.0120 0.0000 -20486.7236 3471.9669 0.0000 0.0000 257.7289 -16756.3708 30.3345 -17014.0997 -16755.7458 30.1455 -672.1540 -617.7732 41893.7755 0.9034 0.8913
ENERGY: 20000 0.0250 0.4101 0.0527 0.0000 -20551.0260 3534.5996 0.0000 0.0000 255.2041 -16760.7345 30.0373 -17015.9387 -16759.9927 30.1050 -393.1214 -309.6968 41940.3510 3.0615 2.8717
ENERGY: 25000 0.0491 0.3966 0.0210 0.0000 -20594.9525 3575.5923 0.0000 0.0000 258.2915 -16760.6021 30.4007 -17018.8936 -16759.9364 29.9808 -96.7302 -41.0988 41766.2122 1.1806 1.2637
TCL: Running 25000 steps at 60 kelvin.
TCL: Setting parameter langevinTemp to 60
TCL: Running for 25000 steps
ETITLE: TS BOND ANGLE DIHED IMPRP ELECT VDW BOUNDARY MISC KINETIC TOTAL TEMP POTENTIAL TOTAL3 TEMPAVG PRESSURE GPRESSURE VOLUME PRESSAVG GPRESSAVG
ENERGY: 25000 0.0491 0.3966 0.0210 0.0000 -20594.9525 3575.5923 0.0000 0.0000 258.1660 -16760.7276 30.3859 -17018.8936 -16760.2449 30.3859 -97.8915 -41.0466 41766.2122 -97.8915 -41.0466
ENERGY: 30000 0.2253 1.6335 0.1026 0.0000 -20305.6717 3515.7276 0.0000 0.0000 520.9370 -16267.0456 61.3139 -16787.9826 -16265.6060 57.1801 266.1524 311.4134 41760.7005 2.2410 2.1663
ENERGY: 35000 0.0496 0.4321 0.2277 0.0000 -20444.1903 3630.9456 0.0000 0.0000 502.2084 -16310.3269 59.1095 -16812.5353 -16309.3686 60.2388 877.6831 902.1271 41535.8049 6.9111 6.3967
ENERGY: 40000 0.0869 0.6079 0.3464 0.0000 -20373.7002 3537.2135 0.0000 0.0000 495.7193 -16339.7263 58.3458 -16835.4456 -16338.7275 59.9188 241.0390 299.4085 41775.6076 6.6155 6.8416
ENERGY: 45000 0.0401 0.9005 0.0282 0.0000 -20306.0682 3441.9837 0.0000 0.0000 498.5299 -16364.5857 58.6766 -16863.1156 -16363.0454 60.1567 -342.1146 -260.4398 41734.0255 6.1187 6.2916
ENERGY: 50000 0.0402 1.0284 0.0674 0.0000 -20472.3468 3613.3781 0.0000 0.0000 506.2998 -16351.5330 59.5911 -16857.8328 -16350.0623 59.6030 648.1986 702.7466 41566.7649 3.5760 4.0507
TCL: Running 25000 steps at 90 kelvin.
TCL: Setting parameter langevinTemp to 90
TCL: Running for 25000 steps
ETITLE: TS BOND ANGLE DIHED IMPRP ELECT VDW BOUNDARY MISC KINETIC TOTAL TEMP POTENTIAL TOTAL3 TEMPAVG PRESSURE GPRESSURE VOLUME PRESSAVG GPRESSAVG
ENERGY: 50000 0.0402 1.0284 0.0674 0.0000 -20472.3468 3613.3781 0.0000 0.0000 506.0428 -16351.7900 59.5608 -16857.8328 -16350.9263 59.5608 650.9406 702.6799 41566.7649 650.9406 702.6799
ENERGY: 55000 0.1385 1.0494 0.0168 0.0000 -20081.1466 3464.5527 0.0000 0.0000 770.2298 -15845.1595 90.6554 -16615.3892 -15843.2195 87.5296 305.8200 372.8233 42108.4422 -2.0952 -2.1047
ENERGY: 60000 0.1483 1.5057 0.0490 0.0000 -20126.8559 3460.6328 0.0000 0.0000 750.7934 -15913.7267 88.3678 -16664.5201 -15912.3764 90.0954 156.3090 225.5296 41987.9655 -3.2682 -3.0751
ENERGY: 65000 0.0426 1.7669 0.2706 0.0000 -20075.0991 3390.6887 0.0000 0.0000 768.8643 -15913.4659 90.4947 -16682.3302 -15910.3019 90.2399 -214.2856 -164.4927 42048.5351 -0.1867 -0.2700
ENERGY: 70000 0.1918 0.9917 0.0528 0.0000 -19923.0150 3208.4474 0.0000 0.0000 765.4624 -15947.8688 90.0943 -16713.3313 -15946.3067 90.7570 -1443.1843 -1353.9889 42432.2418 1.1809 1.1344
ENERGY: 75000 0.0552 1.4656 0.6125 0.0000 -20089.0076 3381.6013 0.0000 0.0000 766.2310 -15939.0421 90.1848 -16705.2731 -15936.8634 90.3879 -421.9357 -398.2278 42118.3627 6.5357 6.2611
TCL: Running 25000 steps at 120 kelvin.
TCL: Setting parameter langevinTemp to 120
TCL: Running for 25000 steps
ETITLE: TS BOND ANGLE DIHED IMPRP ELECT VDW BOUNDARY MISC KINETIC TOTAL TEMP POTENTIAL TOTAL3 TEMPAVG PRESSURE GPRESSURE VOLUME PRESSAVG GPRESSAVG
ENERGY: 75000 0.0552 1.4656 0.6125 0.0000 -20089.0076 3381.6013 0.0000 0.0000 765.8509 -15939.4222 90.1400 -16705.2731 -15937.9332 90.1400 -450.7486 -398.3176 42118.3627 -450.7486 -398.3176
ENERGY: 80000 0.0203 1.4288 0.1581 0.0000 -19884.7812 3455.8163 0.0000 0.0000 1050.7811 -15376.5767 123.6761 -16427.3578 -15375.4492 116.3715 779.8743 837.1792 41969.8167 3.2191 3.2999
ENERGY: 85000 0.2356 1.0646 0.0617 0.0000 -19876.0684 3403.6742 0.0000 0.0000 1003.1662 -15467.8663 118.0718 -16471.0324 -15464.6259 121.2714 385.6125 435.5463 41948.7410 2.4928 2.1761
ENERGY: 90000 0.6242 1.1618 0.0872 0.0000 -19734.1832 3228.8550 0.0000 0.0000 990.0321 -15513.4230 116.5260 -16503.4551 -15510.6684 119.6210 -819.7560 -759.9077 42267.4022 2.4324 2.3044
ENERGY: 95000 0.2461 1.9585 0.0547 0.0000 -19910.3451 3419.8541 0.0000 0.0000 1042.5971 -15445.6346 122.7128 -16488.2317 -15442.5764 118.7281 511.9041 560.1596 41809.7968 3.2625 2.6640
ENERGY: 100000 0.6824 1.4648 0.0786 0.0000 -19729.5601 3213.1148 0.0000 0.0000 1000.5679 -15513.6516 117.7660 -16514.2195 -15510.9695 119.2088 -825.6097 -798.5469 42194.9056 -1.6070 -1.4504
TCL: Running 25000 steps at 150 kelvin.
TCL: Setting parameter langevinTemp to 150
TCL: Running for 25000 steps
ETITLE: TS BOND ANGLE DIHED IMPRP ELECT VDW BOUNDARY MISC KINETIC TOTAL TEMP POTENTIAL TOTAL3 TEMPAVG PRESSURE GPRESSURE VOLUME PRESSAVG GPRESSAVG
ENERGY: 100000 0.6824 1.4648 0.0786 0.0000 -19729.5601 3213.1148 0.0000 0.0000 1000.0526 -15514.1669 117.7054 -16514.2195 -15512.0134 117.7054 -857.7692 -798.7014 42194.9056 -857.7692 -798.7014
ENERGY: 105000 0.1145 0.9569 0.1399 0.0000 -19340.4658 3187.6324 0.0000 0.0000 1285.4636 -14866.1583 151.2980 -16151.6220 -14862.9693 146.5261 -160.3649 -79.4348 42249.8750 1.8381 2.0648
ENERGY: 110000 0.0641 1.9875 0.1075 0.0000 -19487.2728 3281.8310 0.0000 0.0000 1276.4156 -14926.8671 150.2331 -16203.2827 -14922.7780 150.5500 307.2838 367.4771 42161.7455 1.5001 1.3785
ENERGY: 115000 0.2129 0.8359 0.3394 0.0000 -19315.3729 3116.4795 0.0000 0.0000 1278.5534 -14918.9519 150.4847 -16197.5052 -14915.6193 150.8682 -562.9296 -514.7976 42146.4755 4.0911 3.6601
ENERGY: 120000 0.2915 1.0105 0.0557 0.0000 -19470.1252 3229.9157 0.0000 0.0000 1262.5602 -14976.2917 148.6023 -16238.8519 -14974.5255 149.0477 -13.8258 27.3307 42021.6813 -0.8201 -0.5876
ENERGY: 125000 0.5039 0.9330 0.0514 0.0000 -19605.0038 3322.7624 0.0000 0.0000 1262.5789 -15018.1743 148.6045 -16280.7531 -15014.8723 149.1155 405.1411 467.7311 41946.2597 0.4443 0.7735
TCL: Running 50000 steps at 180 kelvin.
TCL: Setting parameter langevinTemp to 180
TCL: Running for 50000 steps
ETITLE: TS BOND ANGLE DIHED IMPRP ELECT VDW BOUNDARY MISC KINETIC TOTAL TEMP POTENTIAL TOTAL3 TEMPAVG PRESSURE GPRESSURE VOLUME PRESSAVG GPRESSAVG
ENERGY: 125000 0.5039 0.9330 0.0514 0.0000 -19605.0038 3322.7624 0.0000 0.0000 1261.9368 -15018.8164 148.5289 -16280.7531 -15016.1941 148.5289 405.6909 467.5705 41946.2597 405.6909 467.5705
ENERGY: 135000 0.4357 2.2007 0.3381 0.0000 -18855.9333 2993.9382 0.0000 0.0000 1569.4745 -14289.5462 184.7259 -15859.0206 -14283.9120 180.1450 -470.3714 -443.5511 42617.0031 1.8688 1.6364
ENERGY: 145000 0.0888 4.1032 0.4077 0.0000 -19156.7377 3201.1388 0.0000 0.0000 1542.9169 -14408.0823 181.6001 -15950.9992 -14405.4750 180.5169 600.3109 664.7458 41849.9404 3.6055 3.8963
ENERGY: 155000 0.6833 1.9560 0.2550 0.0000 -19057.4926 3143.4218 0.0000 0.0000 1564.2371 -14346.9395 184.1094 -15911.1767 -14341.0027 180.3916 422.3617 482.4315 41888.3842 1.1148 1.2278
ENERGY: 165000 1.5056 1.8167 0.0022 0.0000 -18974.9734 3073.7908 0.0000 0.0000 1519.8596 -14377.9986 178.8862 -15897.8581 -14375.8295 179.3208 -101.6007 -47.1683 42141.4247 2.1757 1.9390
ENERGY: 175000 0.4779 1.7848 0.0428 0.0000 -19023.1549 3089.8959 0.0000 0.0000 1553.3071 -14377.6464 182.8230 -15930.9536 -14374.1188 180.5520 64.2962 154.1677 41697.7667 0.8441 0.5188
TCL: Running 50000 steps at 210 kelvin.
TCL: Setting parameter langevinTemp to 210
TCL: Running for 50000 steps
ETITLE: TS BOND ANGLE DIHED IMPRP ELECT VDW BOUNDARY MISC KINETIC TOTAL TEMP POTENTIAL TOTAL3 TEMPAVG PRESSURE GPRESSURE VOLUME PRESSAVG GPRESSAVG
ENERGY: 175000 0.4779 1.7848 0.0428 0.0000 -19023.1549 3089.8959 0.0000 0.0000 1552.5326 -14378.4210 182.7318 -15930.9536 -14375.5830 182.7318 93.1694 154.6059 41697.7667 93.1694 154.6059
ENERGY: 185000 0.3157 2.3828 0.1042 0.0000 -17999.9195 2662.1752 0.0000 0.0000 1815.3258 -13519.6157 213.6624 -15334.9416 -13515.4480 209.4790 -705.0309 -671.1585 41961.2087 6.7935 6.6869
ENERGY: 195000 1.0827 2.3538 0.0724 0.0000 -17911.0168 2695.4698 0.0000 0.0000 1788.0843 -13423.9538 210.4561 -15212.0381 -13417.8784 210.2485 -361.0808 -290.5154 42025.4918 0.8458 1.5353
ENERGY: 205000 0.6636 4.5470 0.1109 0.0000 -17987.2442 2683.6930 0.0000 0.0000 1799.4028 -13498.8268 211.7883 -15298.2296 -13494.1017 208.8073 -437.1022 -414.2287 41739.5604 1.2303 0.3495
ENERGY: 215000 0.6344 2.1923 0.4622 0.0000 -18076.4724 2775.6559 0.0000 0.0000 1780.0403 -13517.4873 209.5093 -15297.5276 -13514.0038 209.7876 84.1906 168.2053 41636.5117 -3.7294 -3.3446
ENERGY: 225000 0.9916 1.4978 0.7129 0.0000 -17938.8099 2658.6785 0.0000 0.0000 1755.6494 -13521.2797 206.6385 -15276.9291 -13516.3336 209.5937 -605.3047 -537.1467 41881.3829 10.3970 9.9657
TCL: Running 50000 steps at 240 kelvin.
TCL: Setting parameter langevinTemp to 240
TCL: Running for 50000 steps
ETITLE: TS BOND ANGLE DIHED IMPRP ELECT VDW BOUNDARY MISC KINETIC TOTAL TEMP POTENTIAL TOTAL3 TEMPAVG PRESSURE GPRESSURE VOLUME PRESSAVG GPRESSAVG
ENERGY: 225000 0.9916 1.4978 0.7129 0.0000 -17938.8099 2658.6785 0.0000 0.0000 1754.7649 -13522.1642 206.5344 -15276.9291 -13519.1883 206.5344 -609.1982 -536.2079 41881.3829 -609.1982 -536.2079
ENERGY: 235000 0.3606 1.8685 0.2865 0.0000 -17050.7117 2509.0728 0.0000 0.0000 2056.7694 -12482.3539 242.0801 -14539.1233 -12480.2561 240.3294 -9.4882 86.8827 42715.3304 -1.1361 -1.8761
ENERGY: 245000 1.9419 1.1056 0.0703 0.0000 -17213.5996 2584.1305 0.0000 0.0000 2044.8348 -12581.5167 240.6754 -14626.3514 -12577.0211 241.1093 412.1268 507.5429 42282.8999 3.9179 3.7680
ENERGY: 255000 0.5826 2.9561 0.2051 0.0000 -16929.7353 2324.1655 0.0000 0.0000 2082.2575 -12519.5683 245.0800 -14601.8259 -12513.8763 238.2239 -1013.2492 -922.9687 42422.4231 2.7607 2.9633
ENERGY: 265000 0.4807 2.1349 0.0622 0.0000 -16984.8253 2380.1244 0.0000 0.0000 1991.3639 -12610.6592 234.3819 -14602.0231 -12607.3769 238.8487 -460.7350 -383.7749 41970.4073 5.6800 5.3173
ENERGY: 275000 0.6826 0.6466 0.1500 0.0000 -17087.8580 2467.9673 0.0000 0.0000 1978.1632 -12640.2483 232.8282 -14618.4115 -12637.0103 240.0478 39.7194 104.4364 41777.5674 6.2436 6.3332
TCL: Running 50000 steps at 270 kelvin.
TCL: Setting parameter langevinTemp to 270
TCL: Running for 50000 steps
ETITLE: TS BOND ANGLE DIHED IMPRP ELECT VDW BOUNDARY MISC KINETIC TOTAL TEMP POTENTIAL TOTAL3 TEMPAVG PRESSURE GPRESSURE VOLUME PRESSAVG GPRESSAVG
ENERGY: 275000 0.6826 0.6466 0.1500 0.0000 -17087.8580 2467.9673 0.0000 0.0000 1977.1309 -12641.2807 232.7067 -14618.4115 -12638.6999 232.7067 14.2718 104.6708 41777.5674 14.2718 104.6708
ENERGY: 285000 0.2656 2.3543 0.4593 0.0000 -16150.4262 2183.1279 0.0000 0.0000 2285.0220 -11679.1972 268.9452 -13964.2192 -11675.6659 268.7896 -627.4873 -507.0343 43232.7395 -0.0722 -0.3798
ENERGY: 295000 0.8504 3.3987 0.6688 0.0000 -16319.8138 2287.4551 0.0000 0.0000 2360.1659 -11667.2750 277.7896 -14027.4409 -11663.1648 270.4865 46.3750 133.2223 42892.0436 -1.4702 -1.8925
ENERGY: 305000 0.8443 3.7454 1.1020 0.0000 -16149.2411 2255.7248 0.0000 0.0000 2331.1509 -11556.6737 274.3746 -13887.8246 -11551.5449 270.1888 -23.9110 91.6563 43540.0121 2.4250 2.7591
ENERGY: 315000 1.0956 1.9314 0.1065 0.0000 -16239.7984 2240.4558 0.0000 0.0000 2343.8081 -11652.4010 275.8643 -13996.2092 -11648.7198 271.2175 -127.0061 -11.4863 42962.0436 0.0166 -0.1620
ENERGY: 325000 0.0464 4.2297 0.1614 0.0000 -16106.3314 2150.8624 0.0000 0.0000 2333.3248 -11617.7068 274.6304 -13951.0316 -11616.4885 271.8299 -561.8582 -472.4765 43006.0934 4.5550 4.2102
TCL: Running 1000000 steps at 300 kelvin.
TCL: Setting parameter langevinTemp to 300
TCL: Running for 1000000 steps
ETITLE: TS BOND ANGLE DIHED IMPRP ELECT VDW BOUNDARY MISC KINETIC TOTAL TEMP POTENTIAL TOTAL3 TEMPAVG PRESSURE GPRESSURE VOLUME PRESSAVG GPRESSAVG
ENERGY: 325000 0.0464 4.2297 0.1614 0.0000 -16106.3314 2150.8624 0.0000 0.0000 2332.1678 -11618.8638 274.4943 -13951.0316 -11615.6823 274.4943 -564.4428 -473.1833 43006.0934 -564.4428 -473.1833
ENERGY: 525000 0.7298 5.0443 0.2626 0.0000 -15557.3047 2090.7866 0.0000 0.0000 2565.5757 -10894.9057 301.9662 -13460.4814 -10891.2467 302.3431 -24.7080 16.1872 44202.6536 8.9574 8.8547
ENERGY: 725000 1.6241 2.4485 0.5254 0.0000 -15426.7591 2016.7522 0.0000 0.0000 2596.0348 -10809.3742 305.5512 -13405.4090 -10803.1276 299.8103 -351.7306 -192.8255 44161.3614 0.6481 0.1875
ENERGY: 925000 0.4154 3.5738 0.2036 0.0000 -15574.3571 2116.2328 0.0000 0.0000 2505.3252 -10948.6062 294.8748 -13453.9315 -10944.8989 301.3965 177.5407 263.1868 43936.3525 1.2110 1.6671
ENERGY: 1125000 0.9880 4.4909 0.0587 0.0000 -15697.9538 2224.7490 0.0000 0.0000 2562.2176 -10905.4496 301.5709 -13467.6672 -10900.8756 300.2814 696.7310 822.8693 43603.9405 5.6813 5.3511
ENERGY: 1325000 0.6788 4.4258 0.4871 0.0000 -15507.0775 2073.8872 0.0000 0.0000 2503.0474 -10924.5513 294.6067 -13427.5987 -10916.6170 302.3091 -62.0051 35.3364 44015.6121 5.9514 5.6927
TCL: Exiting due to exit command.
