Info: SIMULATION PARAMETERS:
Info: TIMESTEP               2
Info: NUMBER OF STEPS        0
Info: STEPS PER CYCLE        10
Info: PERIODIC CELL BASIS 1  31.8744 0 0
Info: PERIODIC CELL BASIS 2  0 30.2719 0
Info: PERIODIC CELL BASIS 3  0 0 31.3841
Info: PERIODIC CELL CENTER   0 0 0
Info: WRAPPING WATERS AROUND PERIODIC BOUNDARIES ON OUTPUT.
Info: WRAPPING ALL CLUSTERS AROUND PERIODIC BOUNDARIES ON OUTPUT.
Info: FIRST LDB TIMESTEP     50
Info: LAST LDB TIMESTEP     -1
Info: HOM BACKGROUND SCALING 1
Info: PME BACKGROUND SCALING 1
Info: MIN ATOMS PER PATCH    40
Info: EMPTY PATCH LOAD       40 ATOMS
Info: VELOCITY FILE          mobley_7015518_equil.vel
Info: CENTER OF MASS MOVING INITIALLY? NO
Info: DIELECTRIC             1
Info: EXCLUDE                SCALED ONE-FOUR
Info: 1-4 ELECTROSTATICS SCALED BY 0.833333
Info: MODIFIED 1-4 VDW PARAMETERS WILL BE USED
Info: DCD FILENAME           mobley_7015518_prod.dcd
Info: DCD FREQUENCY          100000
Info: DCD FIRST STEP         100000
Info: DCD FILE WILL CONTAIN UNIT CELL DATA
Info: XST FILENAME           mobley_7015518_prod.xst
Info: XST FREQUENCY          100000
Info: NO VELOCITY DCD OUTPUT
Info: NO FORCE DCD OUTPUT
Info: OUTPUT FILENAME        mobley_7015518_prod
Info: BINARY OUTPUT FILES WILL BE USED
Info: RESTART FILENAME       mobley_7015518_prod.restart
Info: RESTART FREQUENCY      100000
Info: BINARY RESTART FILES WILL BE USED
Info: CUTOFF                 9
Info: PAIRLIST DISTANCE      11
Info: PAIRLIST SHRINK RATE   0.01
Info: PAIRLIST GROW RATE     0.01
Info: PAIRLIST TRIGGER       0.3
Info: PAIRLISTS PER CYCLE    2
Info: PAIRLISTS ENABLED
Info: MARGIN                 2
Info: HYDROGEN GROUP CUTOFF  2.5
Info: PATCH DIMENSION        15.5
Info: ENERGY OUTPUT STEPS    100000
Info: ENERGY EVALUATION STEPS    100000
Info: OUTPUT ENERGY PRECISION 4
Info: CROSSTERM ENERGY INCLUDED IN DIHEDRAL
Info: TIMING OUTPUT STEPS    1000000
Info: PRESSURE OUTPUT STEPS  100000
Info: ALCHEMICAL FEP ON
Info: FEP CURRENT LAMBDA VALUE     0
Info: FEP COMPARISON LAMBDA VALUE  0.05
Info: FEP INTRA-ALCHEMICAL NON-BONDED INTERACTIONS WILL BE RETAINED
Info: FEP INTRA-ALCHEMICAL BONDED INTERACTIONS WILL BE RETAINED
Info: FEP VDW SHIFTING COEFFICIENT 5
Info: FEP ELEC. ACTIVE FOR ANNIHILATED PARTICLES BETWEEN LAMBDA = 0 AND LAMBDA = 0.5
Info: FEP ELEC. ACTIVE FOR EXNIHILATED PARTICLES BETWEEN LAMBDA = 0.5 AND LAMBDA = 1
Info: FEP VDW ACTIVE FOR ANNIHILATED PARTICLES BETWEEN LAMBDA = 0 AND LAMBDA = 1
Info: FEP VDW ACTIVE FOR EXNIHILATED PARTICLES BETWEEN LAMBDA = 0 AND LAMBDA = 1
Info: FEP BOND ACTIVE FOR ANNIHILATED PARTICLES BETWEEN LAMBDA = 1 AND LAMBDA = 1
Info: FEP BOND ACTIVE FOR EXNIHILATED PARTICLES BETWEEN LAMBDA = 0 AND LAMBDA = 0
Info: LANGEVIN DYNAMICS ACTIVE
Info: LANGEVIN TEMPERATURE   300
Info: LANGEVIN USING BBK INTEGRATOR
Info: LANGEVIN DAMPING COEFFICIENT IS 1 INVERSE PS
Info: LANGEVIN DYNAMICS APPLIED TO HYDROGENS
Info: LANGEVIN PISTON PRESSURE CONTROL ACTIVE
Info:        TARGET PRESSURE IS 1.01325 BAR
Info:     OSCILLATION PERIOD IS 50 FS
Info:             DECAY TIME IS 25 FS
Info:     PISTON TEMPERATURE IS 300 K
Info:       PRESSURE CONTROL IS GROUP-BASED
Info:    INITIAL STRAIN RATE IS -0.000139241 -0.000139241 -0.000139241
Info:       CELL FLUCTUATION IS ISOTROPIC
Info: PARTICLE MESH EWALD (PME) ACTIVE
Info: PME TOLERANCE               1e-06
Info: PME EWALD COEFFICIENT       0.348832
Info: PME INTERPOLATION ORDER     4
Info: PME GRID DIMENSIONS         32 32 32
Info: PME MAXIMUM GRID SPACING    1
Info: PME CALCULATION WILL BE PERFORMED ON GPU
Info: FULL ELECTROSTATIC EVALUATION FREQUENCY      2
Info: USING VERLET I (r-RESPA) MTS SCHEME.
Info: C1 SPLITTING OF LONG RANGE ELECTROSTATICS
Info: PLACING ATOMS IN PATCHES BY HYDROGEN GROUPS
Info: RIGID BONDS TO HYDROGEN : ALL
Info:         ERROR TOLERANCE : 1e-08
Info:          MAX ITERATIONS : 100
Info: RIGID WATER USING SETTLE ALGORITHM
Info: RANDOM NUMBER SEED     1742504428
Info: USE HYDROGEN BONDS?    NO
Info: Using AMBER format force field!
Info: AMBER PARM FILE        mobley_7015518.prmtop
Info: COORDINATE PDB         mobley_7015518.pdb
Info: Exclusions will be read from PARM file!
Info: SCNB (VDW SCALING)     2
Info: USING ARITHMETIC MEAN TO COMBINE L-J SIGMA PARAMETERS
Info: BINARY COORDINATES     mobley_7015518_equil.coor
Info: SUMMARY OF PARAMETERS:
Info: 4 BONDS
Info: 3 ANGLES
Info:   3 HARMONIC
Info:   0 COSINE-BASED
Info: 1 DIHEDRAL
Info: 0 IMPROPER
Info: 0 CROSSTERM
Info: 0 VDW
Info: 15 VDW_PAIRS
Info: 0 NBTHOLE_PAIRS
Info: To read alchdata from file: mobley_7015518.pdb
Info: To read alchflag data from column: 5
Info: STRUCTURE SUMMARY:
Info: 3000 ATOMS
Info: 2999 BONDS
Info: 13 ANGLES
Info: 6 DIHEDRALS
Info: 0 IMPROPERS
Info: 0 CROSSTERMS
Info: 3018 EXCLUSIONS
Info: 2997 RIGID BONDS
Info: ALCH: 0 ATOMS TO DISAPPEAR IN FINAL STATE
Info: ALCH: 9 ATOMS TO APPEAR IN FINAL STATE
Info: 6003 DEGREES OF FREEDOM
Info: 1000 HYDROGEN GROUPS
Info: 4 ATOMS IN LARGEST HYDROGEN GROUP
Info: 1000 MIGRATION GROUPS
Info: 4 ATOMS IN LARGEST MIGRATION GROUP
Info: TOTAL MASS = 18008 amu
Info: TOTAL CHARGE = 9.99942e-05 e
Info: MASS DENSITY = 0.987491 g/cm^3
Info: ATOM DENSITY = 0.0990671 atoms/A^3
Info: ADDED 0 IMPLICIT EXCLUSIONS
Info: NONBONDED TABLE R-SQUARED SPACING: 0.0625
Info: NONBONDED TABLE SIZE: 705 POINTS
Info: REMOVING COM VELOCITY -0.188645 0.254891 -0.0308454
Info: Use 3D box decompostion in PME FFT.
Info: Updated CUDA force table with 4096 elements.
Info: Updated CUDA LJ table with 5 x 5 elements.
Info: Found 12 unique exclusion lists needing 16 bytes
TCL: Running for 1500000 steps
ETITLE: TS BOND ANGLE DIHED IMPRP ELECT VDW BOUNDARY MISC KINETIC TOTAL TEMP POTENTIAL TOTALAVG TEMPAVG PRESSURE GPRESSURE VOLUME PRESSAVG GPRESSAVG
ENERGY: 0 0.3269 1.9600 0.1604 0.0000 -10869.8552 1430.8253 0.0000 0.0000 1792.9425 -7643.6401 300.5996 -9436.5826 -7643.6401 300.5996 -7.0480 73.0853 30282.5126 -7.0480 73.0853
ENERGY: 300000 0.9168 2.2628 1.4683 0.0000 -10951.7358 1501.4328 0.0000 0.0000 1788.7800 -7656.8750 299.9017 -9445.6550 -7652.4575 300.0996 -41.4050 -6.8255 31127.3431 90.9449 145.5118
ENERGY: 600000 0.6331 0.8661 0.7877 0.0000 -10762.8397 1405.5037 0.0000 0.0000 1793.2896 -7561.7594 300.6578 -9355.0491 -7628.9576 301.1052 -304.8285 -233.2925 30750.8284 -97.9562 -45.0421
ENERGY: 900000 0.7734 3.2707 2.0677 0.0000 -10999.6606 1520.4203 0.0000 0.0000 1797.8412 -7675.2873 301.4209 -9473.1285 -7631.1597 300.8886 487.6879 531.4453 30357.1578 -85.1123 -39.1493
ENERGY: 1200000 1.0764 2.0586 0.3103 0.0000 -10956.9729 1545.3859 0.0000 0.0000 1814.3248 -7593.8170 304.1845 -9408.1418 -7623.7191 301.8666 759.4904 782.7923 30658.9247 -46.5625 -6.6667
ENERGY: 1500000 0.1620 3.1669 0.2333 0.0000 -10813.5353 1403.9779 0.0000 0.0000 1791.0123 -7614.9828 300.2760 -9405.9952 -7623.5051 301.8117 -242.4372 -183.9897 30470.8233 -67.8189 -22.2664
TCL: Running FEP window   2: Lambda1 0.05   Lambda2 0.1    [dLambda 0.05  ]
TCL: Setting parameter firsttimestep to 0
TCL: Setting parameter alchLambda to 0.05
Info: NONBONDED TABLE R-SQUARED SPACING: 0.0625
Info: NONBONDED TABLE SIZE: 705 POINTS
TCL: Setting parameter alchLambda2 to 0.1
Info: NONBONDED TABLE R-SQUARED SPACING: 0.0625
Info: NONBONDED TABLE SIZE: 705 POINTS
TCL: Running for 1500000 steps
ETITLE: TS BOND ANGLE DIHED IMPRP ELECT VDW BOUNDARY MISC KINETIC TOTAL TEMP POTENTIAL TOTALAVG TEMPAVG PRESSURE GPRESSURE VOLUME PRESSAVG GPRESSAVG
ENERGY: 0 0.1620 3.1669 0.2333 0.0000 -10813.5351 1404.4053 0.0000 0.0000 1790.1034 -7615.4642 300.1236 -9405.5676 -7615.4642 300.1236 -280.8448 -185.1434 30470.8233 -280.8448 -185.1434
ENERGY: 300000 1.4694 3.4819 0.2050 0.0000 -10722.7550 1389.9781 0.0000 0.0000 1818.4035 -7509.2170 304.8683 -9327.6206 -7624.7873 298.6185 -125.9313 18.6794 30291.5212 -289.4678 -197.9327
ENERGY: 600000 0.4037 0.4980 0.3675 0.0000 -10925.9203 1517.9150 0.0000 0.0000 1768.0993 -7638.6368 296.4345 -9406.7361 -7627.5361 300.2873 370.8058 465.3035 30673.3532 -187.4737 -96.2297
ENERGY: 900000 0.0677 1.2383 1.0555 0.0000 -10843.2861 1438.6288 0.0000 0.0000 1775.7696 -7626.5261 297.7205 -9402.2958 -7612.3630 301.1906 -324.3070 -228.3545 30955.5551 -102.9679 -20.4627
ENERGY: 1200000 0.0131 1.3957 1.1346 0.0000 -10895.2121 1432.4555 0.0000 0.0000 1818.0033 -7642.2099 304.8012 -9460.2132 -7618.3715 300.9276 -364.2553 -323.4452 30989.9003 -121.8632 -39.7786
ENERGY: 1500000 0.0539 3.5782 0.4162 0.0000 -10887.7165 1487.7577 0.0000 0.0000 1795.5184 -7600.3921 301.0315 -9395.9106 -7622.3175 300.7364 166.4178 247.2477 30846.3695 -110.0427 -30.8214
TCL: Running FEP window   3: Lambda1 0.1    Lambda2 0.15000000000000002 [dLambda 0.05000000000000002]
TCL: Setting parameter firsttimestep to 0
TCL: Setting parameter alchLambda to 0.1
Info: NONBONDED TABLE R-SQUARED SPACING: 0.0625
Info: NONBONDED TABLE SIZE: 705 POINTS
TCL: Setting parameter alchLambda2 to 0.15000000000000002
Info: NONBONDED TABLE R-SQUARED SPACING: 0.0625
Info: NONBONDED TABLE SIZE: 705 POINTS
TCL: Running for 1500000 steps
ETITLE: TS BOND ANGLE DIHED IMPRP ELECT VDW BOUNDARY MISC KINETIC TOTAL TEMP POTENTIAL TOTALAVG TEMPAVG PRESSURE GPRESSURE VOLUME PRESSAVG GPRESSAVG
ENERGY: 0 0.0539 3.5782 0.4162 0.0000 -10887.7166 1487.7049 0.0000 0.0000 1794.6563 -7601.3072 300.8869 -9395.9634 -7601.3072 300.8869 172.4931 247.3901 30846.3695 172.4931 247.3901
ENERGY: 300000 0.6053 1.9098 0.7811 0.0000 -10885.1803 1448.9099 0.0000 0.0000 1818.0692 -7614.9050 304.8123 -9432.9742 -7598.6662 303.5363 -337.3043 -249.9040 30959.8966 -67.6157 -2.7712
ENERGY: 600000 0.1524 2.4862 0.1491 0.0000 -10813.3070 1374.6762 0.0000 0.0000 1741.1844 -7694.6586 291.9220 -9435.8430 -7614.5503 301.8358 -918.9364 -935.1034 31251.4761 -170.3352 -122.2060
ENERGY: 900000 0.9054 3.4175 0.6099 0.0000 -10931.2843 1457.8475 0.0000 0.0000 1829.9225 -7638.5813 306.7996 -9468.5038 -7610.6958 302.2600 -176.8495 -129.4775 30481.5419 -244.4553 -197.9418
ENERGY: 1200000 1.8544 2.3338 3.7627 0.0000 -10682.8857 1305.5307 0.0000 0.0000 1818.7502 -7550.6539 304.9264 -9369.4041 -7604.8956 302.6439 -1084.8818 -1039.4221 30943.4726 -373.0286 -325.7788
ENERGY: 1500000 0.3366 2.0562 0.4326 0.0000 -11084.6501 1573.9877 0.0000 0.0000 1793.9664 -7713.8706 300.7713 -9507.8370 -7607.9858 301.7886 829.8004 885.0963 30078.0288 -287.9876 -245.9111
TCL: Running FEP window   4: Lambda1 0.15000000000000002 Lambda2 0.2    [dLambda 0.04999999999999999]
TCL: Setting parameter firsttimestep to 0
TCL: Setting parameter alchLambda to 0.15000000000000002
Info: NONBONDED TABLE R-SQUARED SPACING: 0.0625
Info: NONBONDED TABLE SIZE: 705 POINTS
TCL: Setting parameter alchLambda2 to 0.2
Info: NONBONDED TABLE R-SQUARED SPACING: 0.0625
Info: NONBONDED TABLE SIZE: 705 POINTS
TCL: Running for 1500000 steps
ETITLE: TS BOND ANGLE DIHED IMPRP ELECT VDW BOUNDARY MISC KINETIC TOTAL TEMP POTENTIAL TOTALAVG TEMPAVG PRESSURE GPRESSURE VOLUME PRESSAVG GPRESSAVG
ENERGY: 0 0.3366 2.0562 0.4326 0.0000 -11084.6496 1574.2651 0.0000 0.0000 1793.0649 -7714.4943 300.6201 -9507.5592 -7714.4943 300.6201 799.2479 888.5328 30078.0288 799.2479 888.5328
ENERGY: 300000 0.3243 1.7703 0.8945 0.0000 -10924.6422 1481.9113 0.0000 0.0000 1746.6128 -7693.1290 292.8321 -9439.7418 -7668.6645 301.4587 -48.6981 -2.3193 30902.7480 -93.1465 -9.8316
ENERGY: 600000 0.1590 4.9961 0.7060 0.0000 -10894.8001 1431.5899 0.0000 0.0000 1789.3751 -7667.9739 300.0015 -9457.3490 -7645.0798 302.4847 -418.5045 -378.7041 30923.9810 -52.9476 15.5468
ENERGY: 900000 1.0255 5.3853 0.0650 0.0000 -10928.5000 1519.8537 0.0000 0.0000 1780.0574 -7622.1131 298.4393 -9402.1705 -7632.1750 302.6433 444.9596 490.0107 30751.5389 -4.0602 57.6160
ENERGY: 1200000 0.0241 2.1759 0.0376 0.0000 -10877.7876 1435.3261 0.0000 0.0000 1834.0310 -7606.1929 307.4884 -9440.2239 -7637.1082 302.3870 -272.7524 -213.8070 30638.9037 -45.6666 7.7616
ENERGY: 1500000 0.5467 3.4555 0.0886 0.0000 -10888.6866 1465.8649 0.0000 0.0000 1814.6769 -7604.0540 304.2435 -9418.7309 -7630.2216 302.4506 34.4468 49.6634 30921.3059 -34.5303 20.8540
TCL: Running FEP window   5: Lambda1 0.2    Lambda2 0.25   [dLambda 0.04999999999999999]
TCL: Setting parameter firsttimestep to 0
TCL: Setting parameter alchLambda to 0.2
Info: NONBONDED TABLE R-SQUARED SPACING: 0.0625
Info: NONBONDED TABLE SIZE: 705 POINTS
TCL: Setting parameter alchLambda2 to 0.25
Info: NONBONDED TABLE R-SQUARED SPACING: 0.0625
Info: NONBONDED TABLE SIZE: 705 POINTS
TCL: Running for 1500000 steps
ETITLE: TS BOND ANGLE DIHED IMPRP ELECT VDW BOUNDARY MISC KINETIC TOTAL TEMP POTENTIAL TOTALAVG TEMPAVG PRESSURE GPRESSURE VOLUME PRESSAVG GPRESSAVG
ENERGY: 0 0.5467 3.4555 0.0886 0.0000 -10888.6877 1466.2213 0.0000 0.0000 1813.8482 -7604.5273 304.1046 -9418.3756 -7604.5273 304.1046 -40.1671 54.4300 30921.3059 -40.1671 54.4300
ENERGY: 300000 1.9404 2.1532 0.7003 0.0000 -10726.9944 1380.0905 0.0000 0.0000 1810.9087 -7531.2012 303.6118 -9342.1099 -7619.7859 297.9138 -612.4736 -570.1304 31353.7602 -117.3861 -86.2770
ENERGY: 600000 0.0470 2.1488 2.2698 0.0000 -10972.5290 1530.7126 0.0000 0.0000 1785.8197 -7651.5310 299.4054 -9437.3507 -7618.0971 298.4365 467.4318 594.8045 30497.3547 23.8461 60.5218
ENERGY: 900000 0.2806 3.0469 0.2311 0.0000 -10891.4164 1386.1470 0.0000 0.0000 1775.3808 -7726.3299 297.6553 -9501.7108 -7636.6284 299.6765 -719.3200 -640.3030 30444.2231 49.2055 95.5267
ENERGY: 1200000 1.8654 2.1541 0.0306 0.0000 -10903.6763 1449.7890 0.0000 0.0000 1814.1251 -7635.7121 304.1510 -9449.8372 -7631.6462 300.2765 -17.1594 42.4519 30356.3320 35.3528 88.2325
ENERGY: 1500000 2.1302 1.5820 0.3396 0.0000 -10826.8279 1430.0393 0.0000 0.0000 1777.9712 -7614.7657 298.0896 -9392.7368 -7632.9126 300.3700 -337.7061 -301.4594 31058.3221 64.7600 123.7520
TCL: Running FEP window   6: Lambda1 0.25   Lambda2 0.3    [dLambda 0.04999999999999999]
TCL: Setting parameter firsttimestep to 0
TCL: Setting parameter alchLambda to 0.25
Info: NONBONDED TABLE R-SQUARED SPACING: 0.0625
Info: NONBONDED TABLE SIZE: 705 POINTS
TCL: Setting parameter alchLambda2 to 0.3
Info: NONBONDED TABLE R-SQUARED SPACING: 0.0625
Info: NONBONDED TABLE SIZE: 705 POINTS
TCL: Running for 1500000 steps
ETITLE: TS BOND ANGLE DIHED IMPRP ELECT VDW BOUNDARY MISC KINETIC TOTAL TEMP POTENTIAL TOTALAVG TEMPAVG PRESSURE GPRESSURE VOLUME PRESSAVG GPRESSAVG
ENERGY: 0 2.1302 1.5820 0.3396 0.0000 -10826.8279 1430.0983 0.0000 0.0000 1777.0652 -7615.6126 297.9377 -9392.6777 -7615.6126 297.9377 -385.0617 -300.1621 31058.3221 -385.0617 -300.1621
ENERGY: 300000 0.1250 0.8567 0.2211 0.0000 -11029.5103 1500.9627 0.0000 0.0000 1831.9937 -7695.3512 307.1468 -9527.3449 -7662.6820 299.4202 -16.8472 47.5904 30637.4943 120.0320 179.6057
ENERGY: 600000 0.3224 4.6938 0.5052 0.0000 -11140.4513 1614.6740 0.0000 0.0000 1742.3104 -7777.9455 292.1108 -9520.2559 -7672.8378 298.9936 945.4222 995.3726 30342.8275 207.6112 269.9480
ENERGY: 900000 1.3678 2.2352 0.4328 0.0000 -10908.5776 1459.7666 0.0000 0.0000 1771.4627 -7673.3125 296.9984 -9444.7752 -7651.5396 300.9341 94.7025 115.2618 30448.0557 57.2052 112.3114
ENERGY: 1200000 0.0050 2.3547 0.8390 0.0000 -10813.8736 1477.3483 0.0000 0.0000 1803.2276 -7530.0990 302.3240 -9333.3266 -7635.8558 300.6568 505.4152 564.5326 30619.9936 40.6486 98.5084
ENERGY: 1500000 0.1825 2.1825 0.5227 0.0000 -10747.4769 1364.4069 0.0000 0.0000 1759.5824 -7620.6000 295.0065 -9380.1824 -7635.0282 299.0825 -778.3130 -708.1404 31054.5958 -43.4296 18.9339
TCL: Running FEP window   7: Lambda1 0.3    Lambda2 0.35   [dLambda 0.04999999999999999]
TCL: Setting parameter firsttimestep to 0
TCL: Setting parameter alchLambda to 0.3
Info: NONBONDED TABLE R-SQUARED SPACING: 0.0625
Info: NONBONDED TABLE SIZE: 705 POINTS
TCL: Setting parameter alchLambda2 to 0.35
Info: NONBONDED TABLE R-SQUARED SPACING: 0.0625
Info: NONBONDED TABLE SIZE: 705 POINTS
TCL: Running for 1500000 steps
ETITLE: TS BOND ANGLE DIHED IMPRP ELECT VDW BOUNDARY MISC KINETIC TOTAL TEMP POTENTIAL TOTALAVG TEMPAVG PRESSURE GPRESSURE VOLUME PRESSAVG GPRESSAVG
ENERGY: 0 0.1825 2.1825 0.5227 0.0000 -10747.4783 1364.9714 0.0000 0.0000 1758.6964 -7620.9229 294.8580 -9379.6193 -7620.9229 294.8580 -772.2528 -703.4246 31054.5958 -772.2528 -703.4246
ENERGY: 300000 2.4316 1.5185 0.3863 0.0000 -10919.7786 1459.0156 0.0000 0.0000 1860.1323 -7596.2942 311.8645 -9456.4265 -7634.6429 296.6337 -160.1549 -132.5544 30907.4833 -414.1871 -356.4284
ENERGY: 600000 0.3838 3.8047 0.9032 0.0000 -10876.3492 1404.6049 0.0000 0.0000 1777.9003 -7688.7524 298.0777 -9466.6526 -7652.6019 297.7819 -308.4058 -259.5897 30412.4797 -197.4985 -143.7560
ENERGY: 900000 0.2382 3.4250 0.0916 0.0000 -10952.6309 1525.5880 0.0000 0.0000 1864.3485 -7558.9395 312.5713 -9423.2880 -7645.7697 299.1999 412.1674 479.7676 30644.1646 -49.1607 3.6028
ENERGY: 1200000 0.3517 2.6651 0.4252 0.0000 -10902.4085 1477.4715 0.0000 0.0000 1770.4737 -7651.0214 296.8326 -9421.4951 -7646.4392 299.0409 -147.6931 -87.0841 31129.7887 -28.4522 25.3340
ENERGY: 1500000 0.6100 7.5934 0.8171 0.0000 -10743.7484 1398.8567 0.0000 0.0000 1749.0115 -7586.8597 293.2343 -9335.8712 -7638.1331 298.6964 -695.3379 -577.6601 31495.1375 -63.0020 -4.6276
TCL: Running FEP window   8: Lambda1 0.35   Lambda2 0.39999999999999997 [dLambda 0.04999999999999999]
TCL: Setting parameter firsttimestep to 0
TCL: Setting parameter alchLambda to 0.35
Info: NONBONDED TABLE R-SQUARED SPACING: 0.0625
Info: NONBONDED TABLE SIZE: 705 POINTS
TCL: Setting parameter alchLambda2 to 0.39999999999999997
Info: NONBONDED TABLE R-SQUARED SPACING: 0.0625
Info: NONBONDED TABLE SIZE: 705 POINTS
TCL: Running for 1500000 steps
ETITLE: TS BOND ANGLE DIHED IMPRP ELECT VDW BOUNDARY MISC KINETIC TOTAL TEMP POTENTIAL TOTALAVG TEMPAVG PRESSURE GPRESSURE VOLUME PRESSAVG GPRESSAVG
ENERGY: 0 0.6100 7.5934 0.8171 0.0000 -10743.7484 1398.8677 0.0000 0.0000 1748.1200 -7587.7402 293.0848 -9335.8602 -7587.7402 293.0848 -649.4626 -574.2962 31495.1375 -649.4626 -574.2962
ENERGY: 300000 0.4129 3.0647 0.0717 0.0000 -11014.8419 1554.0429 0.0000 0.0000 1830.8584 -7626.3911 306.9565 -9457.2495 -7600.5550 300.7878 377.8763 525.0189 30886.7607 13.4296 91.8830
ENERGY: 600000 0.1037 3.3864 0.1991 0.0000 -10879.3712 1519.2523 0.0000 0.0000 1784.1808 -7572.2490 299.1306 -9356.4298 -7597.1610 301.9554 357.8846 364.2262 31433.1674 140.9319 190.0143
ENERGY: 900000 1.5062 3.2366 1.0077 0.0000 -10808.6475 1446.8456 0.0000 0.0000 1799.8918 -7556.1594 301.7647 -9356.0513 -7620.8573 299.4024 56.4408 31.2980 30883.6294 118.0598 160.9479
ENERGY: 1200000 0.5586 1.9545 1.7833 0.0000 -10877.8425 1411.5935 0.0000 0.0000 1776.2853 -7685.6672 297.8069 -9461.9526 -7630.9773 300.4438 -644.4562 -580.4680 31010.1375 115.3428 166.6631
ENERGY: 1500000 0.2324 2.6666 0.4220 0.0000 -10742.9704 1359.7262 0.0000 0.0000 1787.7186 -7592.2047 299.7238 -9379.9232 -7625.0067 301.4045 -588.8444 -529.8202 30630.4368 40.5996 92.1711
TCL: Running FEP window   9: Lambda1 0.39999999999999997 Lambda2 0.44999999999999996 [dLambda 0.04999999999999999]
TCL: Setting parameter firsttimestep to 0
TCL: Setting parameter alchLambda to 0.39999999999999997
Info: NONBONDED TABLE R-SQUARED SPACING: 0.0625
Info: NONBONDED TABLE SIZE: 705 POINTS
TCL: Setting parameter alchLambda2 to 0.44999999999999996
Info: NONBONDED TABLE R-SQUARED SPACING: 0.0625
Info: NONBONDED TABLE SIZE: 705 POINTS
TCL: Running for 1500000 steps
ETITLE: TS BOND ANGLE DIHED IMPRP ELECT VDW BOUNDARY MISC KINETIC TOTAL TEMP POTENTIAL TOTALAVG TEMPAVG PRESSURE GPRESSURE VOLUME PRESSAVG GPRESSAVG
ENERGY: 0 0.2324 2.6666 0.4220 0.0000 -10742.9708 1359.7166 0.0000 0.0000 1786.7984 -7593.1347 299.5695 -9379.9332 -7593.1347 299.5695 -610.8898 -527.6691 30630.4368 -610.8898 -527.6691
ENERGY: 300000 0.5720 4.3125 0.6641 0.0000 -10941.5103 1474.7585 0.0000 0.0000 1797.0475 -7664.1557 301.2878 -9461.2032 -7621.1249 301.4508 223.1956 248.2162 30367.0760 -437.0736 -367.2210
ENERGY: 600000 0.4378 2.8435 1.5810 0.0000 -10871.3972 1468.9608 0.0000 0.0000 1780.8360 -7616.7381 298.5699 -9397.5742 -7628.8813 301.2979 62.4844 149.9176 30844.8365 -352.4565 -283.0114
ENERGY: 900000 2.1783 2.0744 0.4223 0.0000 -10797.2583 1409.0954 0.0000 0.0000 1770.8314 -7612.6565 296.8925 -9383.4879 -7620.7809 300.2551 -401.6509 -276.0945 30698.9110 -299.0721 -232.7202
ENERGY: 1200000 0.2954 1.5118 1.2643 0.0000 -10877.4778 1433.6899 0.0000 0.0000 1731.5708 -7709.1457 290.3102 -9440.7164 -7623.1427 298.6415 -368.3711 -291.9782 30791.2646 -320.8004 -255.8252
ENERGY: 1500000 0.3855 1.6740 1.3922 0.0000 -10871.5655 1497.3877 0.0000 0.0000 1813.5499 -7557.1762 304.0546 -9370.7261 -7616.5902 299.3386 202.1032 389.8510 30973.9035 -224.6168 -149.4050
TCL: Running FEP window  10: Lambda1 0.44999999999999996 Lambda2 0.49999999999999994 [dLambda 0.04999999999999999]
TCL: Setting parameter firsttimestep to 0
TCL: Setting parameter alchLambda to 0.44999999999999996
Info: NONBONDED TABLE R-SQUARED SPACING: 0.0625
Info: NONBONDED TABLE SIZE: 705 POINTS
TCL: Setting parameter alchLambda2 to 0.49999999999999994
Info: NONBONDED TABLE R-SQUARED SPACING: 0.0625
Info: NONBONDED TABLE SIZE: 705 POINTS
TCL: Running for 1500000 steps
ETITLE: TS BOND ANGLE DIHED IMPRP ELECT VDW BOUNDARY MISC KINETIC TOTAL TEMP POTENTIAL TOTALAVG TEMPAVG PRESSURE GPRESSURE VOLUME PRESSAVG GPRESSAVG
ENERGY: 0 0.3855 1.6740 1.3922 0.0000 -10871.5667 1497.6314 0.0000 0.0000 1812.6837 -7557.8000 303.9094 -9370.4837 -7557.8000 303.9094 321.6361 396.2790 30973.9035 321.6361 396.2790
ENERGY: 300000 0.2295 1.5516 0.2277 0.0000 -10948.2523 1527.7522 0.0000 0.0000 1813.1341 -7605.3573 303.9849 -9418.4913 -7635.1640 300.7097 701.9428 782.1115 30364.1650 171.5435 259.7452
ENERGY: 600000 0.3045 4.8054 0.1122 0.0000 -10954.5266 1500.1215 0.0000 0.0000 1827.7825 -7621.4005 306.4408 -9449.1829 -7630.8148 301.8873 356.5540 373.9943 30780.1718 333.3355 401.7420
ENERGY: 900000 1.7142 4.6158 0.7673 0.0000 -10984.6033 1515.9501 0.0000 0.0000 1828.8121 -7632.7439 306.6134 -9461.5560 -7639.1013 301.6627 419.4540 469.3073 30565.1925 237.7588 307.2304
ENERGY: 1200000 0.7722 3.4485 0.9980 0.0000 -10900.3994 1478.5652 0.0000 0.0000 1775.6823 -7640.9332 297.7058 -9416.6155 -7634.0039 301.3151 -202.5833 -89.0445 31291.5654 121.4950 191.6881
ENERGY: 1500000 1.1717 3.8131 0.0406 0.0000 -10978.3494 1533.6626 0.0000 0.0000 1805.2079 -7634.4534 302.6560 -9439.6613 -7636.3250 300.9706 812.4265 817.4128 30434.8638 194.6552 261.1833
TCL: Running FEP window  11: Lambda1 0.49999999999999994 Lambda2 0.5499999999999999 [dLambda 0.04999999999999999]
TCL: Setting parameter firsttimestep to 0
TCL: Setting parameter alchLambda to 0.49999999999999994
Info: NONBONDED TABLE R-SQUARED SPACING: 0.0625
Info: NONBONDED TABLE SIZE: 705 POINTS
TCL: Setting parameter alchLambda2 to 0.5499999999999999
Info: NONBONDED TABLE R-SQUARED SPACING: 0.0625
Info: NONBONDED TABLE SIZE: 705 POINTS
TCL: Running for 1500000 steps
ETITLE: TS BOND ANGLE DIHED IMPRP ELECT VDW BOUNDARY MISC KINETIC TOTAL TEMP POTENTIAL TOTALAVG TEMPAVG PRESSURE GPRESSURE VOLUME PRESSAVG GPRESSAVG
ENERGY: 0 1.1717 3.8131 0.0406 0.0000 -10978.3501 1533.6819 0.0000 0.0000 1804.3264 -7635.3163 302.5082 -9439.6427 -7635.3163 302.5082 735.8893 820.5715 30434.8638 735.8893 820.5715
ENERGY: 300000 0.0099 2.1938 0.1818 0.0000 -10885.9177 1452.2270 0.0000 0.0000 1758.4539 -7672.8513 294.8173 -9431.3052 -7609.2195 302.2220 36.8338 77.9242 30452.8784 172.9531 218.8177
ENERGY: 600000 0.7610 3.8821 0.1626 0.0000 -10893.5432 1475.5555 0.0000 0.0000 1774.6455 -7638.5364 297.5320 -9413.1819 -7603.4900 300.5354 -0.3113 13.8465 31096.2760 -13.1569 30.2174
ENERGY: 900000 0.3752 6.5091 0.3963 0.0000 -10853.4303 1471.0615 0.0000 0.0000 1797.6018 -7577.4863 301.3808 -9375.0881 -7600.0474 300.4127 238.7092 311.7398 30656.3351 31.3686 85.4660
ENERGY: 1200000 0.0440 4.3278 0.8090 0.0000 -10836.0579 1437.0906 0.0000 0.0000 1782.8209 -7610.9657 298.9026 -9393.7865 -7592.8092 301.2336 16.9657 40.4689 30587.2734 44.1673 83.0065
ENERGY: 1500000 0.5159 3.6257 0.8067 0.0000 -10891.8356 1506.7102 0.0000 0.0000 1787.4128 -7592.7643 299.6725 -9380.1771 -7600.7099 301.2532 192.5889 311.0633 30981.0331 23.2293 75.6520
TCL: Running FEP window  12: Lambda1 0.5499999999999999 Lambda2 0.6    [dLambda 0.050000000000000044]
TCL: Setting parameter firsttimestep to 0
TCL: Setting parameter alchLambda to 0.5499999999999999
Info: NONBONDED TABLE R-SQUARED SPACING: 0.0625
Info: NONBONDED TABLE SIZE: 705 POINTS
TCL: Setting parameter alchLambda2 to 0.6
Info: NONBONDED TABLE R-SQUARED SPACING: 0.0625
Info: NONBONDED TABLE SIZE: 705 POINTS
TCL: Running for 1500000 steps
ETITLE: TS BOND ANGLE DIHED IMPRP ELECT VDW BOUNDARY MISC KINETIC TOTAL TEMP POTENTIAL TOTALAVG TEMPAVG PRESSURE GPRESSURE VOLUME PRESSAVG GPRESSAVG
ENERGY: 0 0.5159 3.6257 0.8067 0.0000 -10891.6934 1506.5681 0.0000 0.0000 1786.5064 -7593.6707 299.5205 -9380.1771 -7593.6707 299.5205 224.4683 314.1111 30981.0331 224.4683 314.1111
ENERGY: 300000 0.2005 1.9707 2.1223 0.0000 -10953.7097 1481.6714 0.0000 0.0000 1717.7989 -7749.9459 288.0012 -9467.7448 -7683.6827 294.4529 -122.1755 6.5190 30807.0246 32.4070 112.7343
ENERGY: 600000 0.6137 1.8677 0.0287 0.0000 -10909.6636 1515.8822 0.0000 0.0000 1782.3491 -7608.9221 298.8235 -9391.2712 -7666.5428 295.8315 604.9442 649.0265 30611.4852 -34.2484 31.9082
ENERGY: 900000 0.2623 2.9795 0.2756 0.0000 -10781.0692 1398.5635 0.0000 0.0000 1803.3387 -7575.6495 302.3426 -9378.9882 -7644.9681 298.0376 -623.0625 -491.8709 31245.8255 -210.5403 -133.1474
ENERGY: 1200000 2.2742 2.6293 0.7425 0.0000 -11005.6251 1545.7291 0.0000 0.0000 1775.1033 -7679.1466 297.6087 -9454.2499 -7664.7742 296.5660 110.8774 205.5989 31187.7637 -202.6324 -127.0014
ENERGY: 1500000 0.0199 2.7640 0.0738 0.0000 -10697.9105 1300.3854 0.0000 0.0000 1815.1036 -7579.5638 304.3151 -9394.6674 -7650.0090 297.5792 -1395.2980 -1368.1830 31542.6904 -245.5168 -181.1718
TCL: Running FEP window  13: Lambda1 0.6    Lambda2 0.65   [dLambda 0.050000000000000044]
TCL: Setting parameter firsttimestep to 0
TCL: Setting parameter alchLambda to 0.6
Info: NONBONDED TABLE R-SQUARED SPACING: 0.0625
Info: NONBONDED TABLE SIZE: 705 POINTS
TCL: Setting parameter alchLambda2 to 0.65
Info: NONBONDED TABLE R-SQUARED SPACING: 0.0625
Info: NONBONDED TABLE SIZE: 705 POINTS
TCL: Running for 1500000 steps
ETITLE: TS BOND ANGLE DIHED IMPRP ELECT VDW BOUNDARY MISC KINETIC TOTAL TEMP POTENTIAL TOTALAVG TEMPAVG PRESSURE GPRESSURE VOLUME PRESSAVG GPRESSAVG
ENERGY: 0 0.0199 2.7640 0.0738 0.0000 -10698.0749 1301.6219 0.0000 0.0000 1814.2157 -7579.3796 304.1662 -9393.5953 -7579.3796 304.1662 -1438.1892 -1354.3729 31542.6904 -1438.1892 -1354.3729
ENERGY: 300000 0.4410 2.5139 1.2701 0.0000 -10841.5681 1436.7184 0.0000 0.0000 1792.6286 -7607.9961 300.5470 -9400.6247 -7580.9611 303.9023 -373.9931 -282.3266 31243.0928 -401.7951 -320.1647
ENERGY: 600000 0.9254 2.6650 0.7885 0.0000 -10828.6568 1481.5999 0.0000 0.0000 1775.7709 -7566.9071 297.7207 -9342.6780 -7591.2512 301.9213 18.7263 152.7828 31312.5860 -430.1380 -337.2258
ENERGY: 900000 1.1108 3.4738 0.8451 0.0000 -11072.4941 1528.3829 0.0000 0.0000 1804.1247 -7734.5569 302.4744 -9538.6816 -7607.7684 302.3042 122.0694 197.3822 30795.6426 -254.3146 -163.5560
ENERGY: 1200000 0.0371 2.2937 1.2160 0.0000 -10848.2536 1500.1836 0.0000 0.0000 1758.3841 -7586.1392 294.8056 -9344.5233 -7604.8881 301.3254 396.4733 428.5717 31121.2592 -159.0782 -80.1420
ENERGY: 1500000 0.2661 1.4748 0.5693 0.0000 -11071.6361 1593.1099 0.0000 0.0000 1819.9811 -7656.2348 305.1328 -9476.2159 -7617.6771 300.9883 1214.5578 1209.3579 30184.9355 -42.8951 31.2002
TCL: Running FEP window  14: Lambda1 0.65   Lambda2 0.7000000000000001 [dLambda 0.050000000000000044]
TCL: Setting parameter firsttimestep to 0
TCL: Setting parameter alchLambda to 0.65
Info: NONBONDED TABLE R-SQUARED SPACING: 0.0625
Info: NONBONDED TABLE SIZE: 705 POINTS
TCL: Setting parameter alchLambda2 to 0.7000000000000001
Info: NONBONDED TABLE R-SQUARED SPACING: 0.0625
Info: NONBONDED TABLE SIZE: 705 POINTS
TCL: Running for 1500000 steps
ETITLE: TS BOND ANGLE DIHED IMPRP ELECT VDW BOUNDARY MISC KINETIC TOTAL TEMP POTENTIAL TOTALAVG TEMPAVG PRESSURE GPRESSURE VOLUME PRESSAVG GPRESSAVG
ENERGY: 0 0.2661 1.4748 0.5693 0.0000 -11071.8222 1592.7248 0.0000 0.0000 1819.0709 -7657.7163 304.9802 -9476.7872 -7657.7163 304.9802 1123.3644 1210.9646 30184.9355 1123.3644 1210.9646
ENERGY: 300000 1.3460 2.5677 0.1015 0.0000 -10671.8385 1324.1997 0.0000 0.0000 1767.3778 -7576.2457 296.3135 -9343.6236 -7648.1735 301.7768 -872.6332 -823.4483 30903.6220 132.0698 200.3264
ENERGY: 600000 0.1705 3.0785 0.1394 0.0000 -10790.6441 1389.6810 0.0000 0.0000 1812.8357 -7584.7389 303.9348 -9397.5746 -7619.9246 303.8815 -722.7713 -672.7593 31444.0694 56.7801 116.8404
ENERGY: 900000 0.4375 2.9354 0.1080 0.0000 -10966.9151 1520.1050 0.0000 0.0000 1835.5319 -7607.7973 307.7400 -9443.3292 -7610.7726 304.7640 263.4708 243.2528 31090.4941 44.9183 96.8909
ENERGY: 1200000 0.0124 2.4449 1.1328 0.0000 -10792.3461 1409.4474 0.0000 0.0000 1754.2147 -7625.0939 294.1066 -9379.3086 -7619.6134 302.7394 -121.0218 -30.9816 30582.0549 32.5128 92.8999
ENERGY: 1500000 0.8843 4.6322 0.2487 0.0000 -10904.3507 1495.0472 0.0000 0.0000 1828.9745 -7574.5639 306.6406 -9403.5384 -7620.1970 302.3290 73.0927 133.6881 31005.9363 1.0404 59.5252
TCL: Running FEP window  15: Lambda1 0.7000000000000001 Lambda2 0.7500000000000001 [dLambda 0.050000000000000044]
TCL: Setting parameter firsttimestep to 0
TCL: Setting parameter alchLambda to 0.7000000000000001
Info: NONBONDED TABLE R-SQUARED SPACING: 0.0625
Info: NONBONDED TABLE SIZE: 705 POINTS
TCL: Setting parameter alchLambda2 to 0.7500000000000001
Info: NONBONDED TABLE R-SQUARED SPACING: 0.0625
Info: NONBONDED TABLE SIZE: 705 POINTS
TCL: Running for 1500000 steps
ETITLE: TS BOND ANGLE DIHED IMPRP ELECT VDW BOUNDARY MISC KINETIC TOTAL TEMP POTENTIAL TOTALAVG TEMPAVG PRESSURE GPRESSURE VOLUME PRESSAVG GPRESSAVG
ENERGY: 0 0.8843 4.6322 0.2487 0.0000 -10904.5356 1494.8343 0.0000 0.0000 1828.0687 -7575.8675 306.4888 -9403.9362 -7575.8675 306.4888 27.7477 135.1164 31005.9363 27.7477 135.1164
ENERGY: 300000 0.1471 3.5963 1.5894 0.0000 -10760.3233 1345.2071 0.0000 0.0000 1817.5253 -7592.2581 304.7211 -9409.7834 -7593.9532 299.8535 -923.7819 -852.2512 31079.0911 -504.0723 -404.2990
ENERGY: 600000 0.6785 4.4675 0.3688 0.0000 -10929.8799 1562.1301 0.0000 0.0000 1798.8032 -7563.4318 301.5822 -9362.2350 -7596.6060 301.5270 1081.1436 1155.2893 30525.6935 -239.4914 -149.3817
ENERGY: 900000 0.0443 2.1977 2.0219 0.0000 -10863.7425 1440.7224 0.0000 0.0000 1789.2280 -7629.5283 299.9768 -9418.7563 -7609.8353 300.9281 -334.6632 -286.9271 31028.2049 -162.1296 -83.6439
ENERGY: 1200000 1.4113 4.3311 0.0460 0.0000 -10943.4954 1508.9123 0.0000 0.0000 1793.4736 -7635.3211 300.6886 -9428.7947 -7617.8132 300.1836 180.2334 332.0623 30873.6492 -241.0889 -157.7345
ENERGY: 1500000 0.0949 4.5086 0.3101 0.0000 -10946.4621 1507.6426 0.0000 0.0000 1826.4606 -7607.4453 306.2192 -9433.9060 -7618.9117 300.5626 136.2183 191.7963 31295.7744 -174.6519 -99.8629
TCL: Running FEP window  16: Lambda1 0.7500000000000001 Lambda2 0.8000000000000002 [dLambda 0.050000000000000044]
TCL: Setting parameter firsttimestep to 0
TCL: Setting parameter alchLambda to 0.7500000000000001
Info: NONBONDED TABLE R-SQUARED SPACING: 0.0625
Info: NONBONDED TABLE SIZE: 705 POINTS
TCL: Setting parameter alchLambda2 to 0.8000000000000002
Info: NONBONDED TABLE R-SQUARED SPACING: 0.0625
Info: NONBONDED TABLE SIZE: 705 POINTS
TCL: Running for 1500000 steps
ETITLE: TS BOND ANGLE DIHED IMPRP ELECT VDW BOUNDARY MISC KINETIC TOTAL TEMP POTENTIAL TOTALAVG TEMPAVG PRESSURE GPRESSURE VOLUME PRESSAVG GPRESSAVG
ENERGY: 0 0.0949 4.5086 0.3101 0.0000 -10946.8356 1507.5359 0.0000 0.0000 1825.5750 -7608.8111 306.0707 -9434.3861 -7608.8111 306.0707 118.9692 193.5103 31295.7744 118.9692 193.5103
ENERGY: 300000 0.1808 2.4892 0.4074 0.0000 -10881.8978 1476.3889 0.0000 0.0000 1807.9206 -7594.5110 303.1108 -9402.4316 -7628.3962 300.2466 293.4189 322.5774 30673.1615 -154.4034 -103.8570
ENERGY: 600000 0.0439 4.0922 0.3577 0.0000 -11034.5428 1542.7387 0.0000 0.0000 1806.0038 -7681.3064 302.7894 -9487.3103 -7635.6993 299.9130 444.8077 529.4994 30613.4881 -46.4023 3.0276
ENERGY: 900000 0.0456 1.7614 1.0212 0.0000 -10945.3787 1497.3316 0.0000 0.0000 1773.9844 -7671.2347 297.4211 -9445.2191 -7648.5600 298.2401 216.3938 236.3371 30888.7568 -113.6677 -65.8738
ENERGY: 1200000 0.0172 2.7498 0.1517 0.0000 -10951.8387 1451.8216 0.0000 0.0000 1735.3215 -7761.7770 290.9390 -9497.0985 -7651.2749 297.8499 -272.9631 -189.8188 30771.7066 -131.9999 -84.2020
ENERGY: 1500000 1.6500 1.0490 0.1722 0.0000 -10937.7098 1493.2969 0.0000 0.0000 1802.9740 -7638.5677 302.2815 -9441.5418 -7640.2800 299.2947 142.1227 160.2831 31033.6757 -205.3257 -157.0881
TCL: Running FEP window  17: Lambda1 0.8000000000000002 Lambda2 0.8500000000000002 [dLambda 0.050000000000000044]
TCL: Setting parameter firsttimestep to 0
TCL: Setting parameter alchLambda to 0.8000000000000002
Info: NONBONDED TABLE R-SQUARED SPACING: 0.0625
Info: NONBONDED TABLE SIZE: 705 POINTS
TCL: Setting parameter alchLambda2 to 0.8500000000000002
Info: NONBONDED TABLE R-SQUARED SPACING: 0.0625
Info: NONBONDED TABLE SIZE: 705 POINTS
TCL: Running for 1500000 steps
ETITLE: TS BOND ANGLE DIHED IMPRP ELECT VDW BOUNDARY MISC KINETIC TOTAL TEMP POTENTIAL TOTALAVG TEMPAVG PRESSURE GPRESSURE VOLUME PRESSAVG GPRESSAVG
ENERGY: 0 1.6500 1.0490 0.1722 0.0000 -10938.4862 1493.9333 0.0000 0.0000 1802.1000 -7639.5818 302.1349 -9441.6818 -7639.5818 302.1349 69.9027 170.1156 31033.6757 69.9027 170.1156
ENERGY: 300000 0.2540 4.5701 0.0421 0.0000 -10751.9498 1357.2251 0.0000 0.0000 1815.4537 -7574.4047 304.3738 -9389.8584 -7603.6835 304.9669 -1010.2726 -973.7380 31614.7943 -210.6841 -148.7486
ENERGY: 600000 0.1254 2.2244 0.8669 0.0000 -10997.4665 1506.8035 0.0000 0.0000 1742.0215 -7745.4249 292.0623 -9487.4464 -7618.2294 301.5345 353.5601 387.4847 30364.3016 -338.1089 -285.5663
ENERGY: 900000 1.6470 2.6595 0.9458 0.0000 -10832.9242 1418.7377 0.0000 0.0000 1744.8920 -7664.0423 292.5436 -9408.9343 -7634.3017 300.8339 -50.6690 -51.9967 30290.0104 -324.0491 -273.4096
ENERGY: 1200000 0.7060 2.3659 1.6260 0.0000 -11025.5624 1535.3202 0.0000 0.0000 1771.5836 -7713.9607 297.0186 -9485.5443 -7649.9931 300.6760 397.5768 482.5408 30663.7046 -222.0945 -168.8236
ENERGY: 1500000 0.3274 4.7106 1.7436 0.0000 -10836.9377 1506.3539 0.0000 0.0000 1804.0333 -7519.7690 302.4591 -9323.8023 -7639.0217 300.1367 348.2508 456.9738 31099.2861 -196.5070 -136.1470
TCL: Running FEP window  18: Lambda1 0.8500000000000002 Lambda2 0.9000000000000002 [dLambda 0.050000000000000044]
TCL: Setting parameter firsttimestep to 0
TCL: Setting parameter alchLambda to 0.8500000000000002
Info: NONBONDED TABLE R-SQUARED SPACING: 0.0625
Info: NONBONDED TABLE SIZE: 705 POINTS
TCL: Setting parameter alchLambda2 to 0.9000000000000002
Info: NONBONDED TABLE R-SQUARED SPACING: 0.0625
Info: NONBONDED TABLE SIZE: 705 POINTS
TCL: Running for 1500000 steps
ETITLE: TS BOND ANGLE DIHED IMPRP ELECT VDW BOUNDARY MISC KINETIC TOTAL TEMP POTENTIAL TOTALAVG TEMPAVG PRESSURE GPRESSURE VOLUME PRESSAVG GPRESSAVG
ENERGY: 0 0.3274 4.7106 1.7436 0.0000 -10837.2165 1506.4433 0.0000 0.0000 1803.1331 -7520.8585 302.3081 -9323.9916 -7520.8585 302.3081 371.8472 463.1468 31099.2861 371.8472 463.1468
ENERGY: 300000 0.8426 0.7809 1.0589 0.0000 -10867.4403 1442.7485 0.0000 0.0000 1723.8912 -7698.1182 289.0227 -9422.0094 -7598.3934 297.9209 -229.0399 -140.2353 30676.7064 4.8634 90.2466
ENERGY: 600000 0.8863 2.8053 0.0553 0.0000 -10816.4027 1405.6272 0.0000 0.0000 1779.8505 -7627.1780 298.4046 -9407.0285 -7629.4813 296.7614 -641.8090 -571.8346 31206.0708 -223.8660 -154.0716
ENERGY: 900000 0.5988 3.8933 0.6373 0.0000 -10950.4027 1428.9488 0.0000 0.0000 1774.1804 -7742.1440 297.4540 -9516.3245 -7666.1249 296.5655 -319.3481 -314.9731 30618.8269 -100.4887 -36.7869
ENERGY: 1200000 0.7588 1.9780 0.0311 0.0000 -10822.2414 1449.2579 0.0000 0.0000 1721.7277 -7648.4878 288.6599 -9370.2155 -7651.2103 296.9365 -434.4071 -334.2773 31579.2742 -144.7979 -84.3815
ENERGY: 1500000 0.0274 3.7556 1.5744 0.0000 -10968.1558 1541.8038 0.0000 0.0000 1792.5971 -7628.3974 300.5417 -9420.9946 -7654.8439 297.0880 725.6630 766.0894 30605.1461 -69.1673 -15.2086
TCL: Running FEP window  19: Lambda1 0.9000000000000002 Lambda2 0.9500000000000003 [dLambda 0.050000000000000044]
TCL: Setting parameter firsttimestep to 0
TCL: Setting parameter alchLambda to 0.9000000000000002
Info: NONBONDED TABLE R-SQUARED SPACING: 0.0625
Info: NONBONDED TABLE SIZE: 705 POINTS
TCL: Setting parameter alchLambda2 to 0.9500000000000003
Info: NONBONDED TABLE R-SQUARED SPACING: 0.0625
Info: NONBONDED TABLE SIZE: 705 POINTS
TCL: Running for 1500000 steps
ETITLE: TS BOND ANGLE DIHED IMPRP ELECT VDW BOUNDARY MISC KINETIC TOTAL TEMP POTENTIAL TOTALAVG TEMPAVG PRESSURE GPRESSURE VOLUME PRESSAVG GPRESSAVG
ENERGY: 0 0.0274 3.7556 1.5744 0.0000 -10968.4394 1542.3803 0.0000 0.0000 1791.7065 -7628.9951 300.3924 -9420.7017 -7628.9951 300.3924 698.5227 778.6035 30605.1461 698.5227 778.6035
ENERGY: 300000 0.0364 3.3518 0.1254 0.0000 -10809.6004 1380.4362 0.0000 0.0000 1808.7018 -7616.9488 303.2418 -9425.6506 -7636.6356 300.6559 -333.8722 -302.6829 30452.8652 243.3594 278.6760
ENERGY: 600000 0.1632 1.6978 0.2698 0.0000 -10920.5070 1502.5669 0.0000 0.0000 1843.6987 -7572.1106 309.1092 -9415.8093 -7615.2949 301.4111 302.9711 338.9533 30945.2124 89.4771 127.9058
ENERGY: 900000 0.2811 3.5656 0.3441 0.0000 -10921.6457 1490.2749 0.0000 0.0000 1763.1209 -7664.0590 295.5998 -9427.1800 -7616.6929 300.5152 -225.7021 -184.6848 31429.0185 10.0529 51.9412
ENERGY: 1200000 1.8308 2.3772 2.0265 0.0000 -10950.0995 1525.3847 0.0000 0.0000 1798.7949 -7619.6854 301.5808 -9418.4803 -7617.0784 300.4285 382.1036 435.3792 30985.7884 85.7565 124.4751
ENERGY: 1500000 0.6613 2.4417 0.2061 0.0000 -10792.4130 1393.9420 0.0000 0.0000 1830.3542 -7564.8079 306.8719 -9395.1620 -7614.8365 301.0813 -764.3044 -637.5505 31325.5269 75.8476 119.4425
TCL: Running FEP window  20: Lambda1 0.9500000000000003 Lambda2 1.0    [dLambda 0.04999999999999971]
TCL: Setting parameter firsttimestep to 0
TCL: Setting parameter alchLambda to 0.9500000000000003
Info: NONBONDED TABLE R-SQUARED SPACING: 0.0625
Info: NONBONDED TABLE SIZE: 705 POINTS
TCL: Setting parameter alchLambda2 to 1.0
Info: NONBONDED TABLE R-SQUARED SPACING: 0.0625
Info: NONBONDED TABLE SIZE: 705 POINTS
TCL: Running for 1500000 steps
ETITLE: TS BOND ANGLE DIHED IMPRP ELECT VDW BOUNDARY MISC KINETIC TOTAL TEMP POTENTIAL TOTALAVG TEMPAVG PRESSURE GPRESSURE VOLUME PRESSAVG GPRESSAVG
ENERGY: 0 0.6613 2.4417 0.2061 0.0000 -10792.7525 1394.3925 0.0000 0.0000 1829.4783 -7565.5726 306.7251 -9395.0509 -7565.5726 306.7251 -716.1996 -624.0397 31325.5269 -716.1996 -624.0397
ENERGY: 300000 0.9306 3.5104 0.0602 0.0000 -10748.9533 1389.2670 0.0000 0.0000 1768.6101 -7586.5750 296.5201 -9355.1851 -7610.9371 299.3762 -586.4428 -449.3104 30858.0525 -112.1957 -35.9262
ENERGY: 600000 0.1805 4.9843 0.3002 0.0000 -10896.9497 1488.9196 0.0000 0.0000 1813.8528 -7588.7121 304.1054 -9402.5649 -7610.9752 300.6537 15.9945 54.4493 31263.3028 -310.4405 -228.2336
ENERGY: 900000 0.3758 3.1589 1.7291 0.0000 -10887.5313 1471.0161 0.0000 0.0000 1866.3737 -7544.8777 312.9109 -9411.2514 -7606.2560 302.1252 315.9985 327.8095 30603.2954 -333.3505 -255.0413
ENERGY: 1200000 1.7212 2.8930 0.1820 0.0000 -10993.2653 1501.5261 0.0000 0.0000 1827.0286 -7659.9145 306.3144 -9486.9430 -7617.4296 301.1022 190.2011 269.3152 30865.9702 -211.2408 -129.9048
ENERGY: 1500000 0.4482 4.0915 0.8991 0.0000 -10837.9879 1407.5010 0.0000 0.0000 1839.2390 -7585.8091 308.3615 -9425.0481 -7619.0025 301.1854 -354.7783 -277.9982 30896.8766 -202.7986 -126.3622
TCL: Exiting due to exit command.
