Info: SIMULATION PARAMETERS:
Info: TIMESTEP               2
Info: NUMBER OF STEPS        0
Info: STEPS PER CYCLE        10
Info: PERIODIC CELL BASIS 1  36.281 0 0
Info: PERIODIC CELL BASIS 2  0 35.779 0
Info: PERIODIC CELL BASIS 3  0 0 34.229
Info: PERIODIC CELL CENTER   0 0 0
Info: WRAPPING WATERS AROUND PERIODIC BOUNDARIES ON OUTPUT.
Info: WRAPPING ALL CLUSTERS AROUND PERIODIC BOUNDARIES ON OUTPUT.
Info: FIRST LDB TIMESTEP     50
Info: LAST LDB TIMESTEP     -1
Info: HOM BACKGROUND SCALING 1
Info: PME BACKGROUND SCALING 1
Info: MIN ATOMS PER PATCH    40
Info: EMPTY PATCH LOAD       40 ATOMS
Info: INITIAL TEMPERATURE    300
Info: CENTER OF MASS MOVING INITIALLY? NO
Info: DIELECTRIC             1
Info: EXCLUDE                SCALED ONE-FOUR
Info: 1-4 ELECTROSTATICS SCALED BY 0.833333
Info: MODIFIED 1-4 VDW PARAMETERS WILL BE USED
Info: DCD FILENAME           mobley_6091882_equil.dcd
Info: DCD FREQUENCY          100000
Info: DCD FIRST STEP         100000
Info: DCD FILE WILL CONTAIN UNIT CELL DATA
Info: XST FILENAME           mobley_6091882_equil.xst
Info: XST FREQUENCY          100000
Info: NO VELOCITY DCD OUTPUT
Info: NO FORCE DCD OUTPUT
Info: OUTPUT FILENAME        mobley_6091882_equil
Info: BINARY OUTPUT FILES WILL BE USED
Info: RESTART FILENAME       mobley_6091882_equil.restart
Info: RESTART FREQUENCY      100000
Info: BINARY RESTART FILES WILL BE USED
Info: CUTOFF                 9
Info: PAIRLIST DISTANCE      11
Info: PAIRLIST SHRINK RATE   0.01
Info: PAIRLIST GROW RATE     0.01
Info: PAIRLIST TRIGGER       0.3
Info: PAIRLISTS PER CYCLE    2
Info: PAIRLISTS ENABLED
Info: MARGIN                 8
Info: HYDROGEN GROUP CUTOFF  2.5
Info: PATCH DIMENSION        21.5
Info: ENERGY OUTPUT STEPS    100000
Info: ENERGY EVALUATION STEPS    100000
Info: OUTPUT ENERGY PRECISION 4
Info: CROSSTERM ENERGY INCLUDED IN DIHEDRAL
Info: TIMING OUTPUT STEPS    1000000
Info: PRESSURE OUTPUT STEPS  100000
Info: FIXED ATOMS ACTIVE
Info: LANGEVIN DYNAMICS ACTIVE
Info: LANGEVIN TEMPERATURE   30
Info: LANGEVIN USING BBK INTEGRATOR
Info: LANGEVIN DAMPING COEFFICIENT IS 1 INVERSE PS
Info: LANGEVIN DYNAMICS APPLIED TO HYDROGENS
Info: LANGEVIN PISTON PRESSURE CONTROL ACTIVE
Info:        TARGET PRESSURE IS 1.01325 BAR
Info:     OSCILLATION PERIOD IS 50 FS
Info:             DECAY TIME IS 25 FS
Info:     PISTON TEMPERATURE IS 300 K
Info:       PRESSURE CONTROL IS GROUP-BASED
Info:    INITIAL STRAIN RATE IS 0 0 0
Info:       CELL FLUCTUATION IS ISOTROPIC
Info: PARTICLE MESH EWALD (PME) ACTIVE
Info: PME TOLERANCE               1e-06
Info: PME EWALD COEFFICIENT       0.348832
Info: PME INTERPOLATION ORDER     4
Info: PME GRID DIMENSIONS         40 36 36
Info: PME MAXIMUM GRID SPACING    1
Info: FULL ELECTROSTATIC EVALUATION FREQUENCY      2
Info: USING VERLET I (r-RESPA) MTS SCHEME.
Info: C1 SPLITTING OF LONG RANGE ELECTROSTATICS
Info: PLACING ATOMS IN PATCHES BY HYDROGEN GROUPS
Info: RIGID BONDS TO HYDROGEN : ALL
Info:         ERROR TOLERANCE : 1e-08
Info:          MAX ITERATIONS : 100
Info: RIGID WATER USING SETTLE ALGORITHM
Info: RANDOM NUMBER SEED     1742447011
Info: USE HYDROGEN BONDS?    NO
Info: Using AMBER format force field!
Info: AMBER PARM FILE        mobley_6091882.prmtop
Info: COORDINATE PDB         mobley_6091882.pdb
Info: Exclusions will be read from PARM file!
Info: SCNB (VDW SCALING)     2
Info: USING ARITHMETIC MEAN TO COMBINE L-J SIGMA PARAMETERS
Info: BINARY COORDINATES     mobley_6091882_min.coor
Info: SUMMARY OF PARAMETERS:
Info: 4 BONDS
Info: 2 ANGLES
Info:   2 HARMONIC
Info:   0 COSINE-BASED
Info: 1 DIHEDRAL
Info: 0 IMPROPER
Info: 0 CROSSTERM
Info: 0 VDW
Info: 10 VDW_PAIRS
Info: 0 NBTHOLE_PAIRS
Info: STRUCTURE SUMMARY:
Info: 2934 ATOMS
Info: 2933 BONDS
Info: 6 ANGLES
Info: 4 DIHEDRALS
Info: 0 IMPROPERS
Info: 0 CROSSTERMS
Info: 2943 EXCLUSIONS
Info: 6 FIXED ATOMS
Info: 2932 RIGID BONDS
Info: 4 RIGID BONDS BETWEEN FIXED ATOMS
Info: 5856 DEGREES OF FREEDOM
Info: 978 HYDROGEN GROUPS
Info: 3 ATOMS IN LARGEST HYDROGEN GROUP
Info: 978 MIGRATION GROUPS
Info: 3 ATOMS IN LARGEST MIGRATION GROUP
Info: 2 HYDROGEN GROUPS WITH ALL ATOMS FIXED
Info: TOTAL MASS = 17611.7 amu
Info: TOTAL CHARGE = 0.000100002 e
Info: MASS DENSITY = 0.6582 g/cm^3
Info: ATOM DENSITY = 0.0660326 atoms/A^3
Info: ADDED 0 IMPLICIT EXCLUSIONS
Info: NONBONDED TABLE R-SQUARED SPACING: 0.0625
Info: NONBONDED TABLE SIZE: 705 POINTS
Info: REMOVING COM VELOCITY -0.0386111 0.0200268 0.00663279
TCL: Running for 100000 steps
ETITLE: TS BOND ANGLE DIHED IMPRP ELECT VDW BOUNDARY MISC KINETIC TOTAL TEMP POTENTIAL TOTAL3 TEMPAVG PRESSURE GPRESSURE VOLUME PRESSAVG GPRESSAVG
ENERGY: 0 0.0000 0.0000 0.0000 0.0000 -13608.0216 2399.9782 0.0000 0.0000 1768.4575 -9439.5858 303.9373 -11208.0434 -9439.2415 303.9373 515.1676 547.1684 44432.5930 515.1676 547.1684
ENERGY: 100000 0.0000 0.0000 0.0000 0.0000 -14226.0260 2482.2802 0.0000 0.0000 177.7145 -11566.0313 30.5430 -11743.7458 -11565.4632 31.0006 77.4521 124.8311 28067.8554 5.2170 5.2664
TCL: Running 100000 steps at 60 kelvin.
TCL: Setting parameter langevinTemp to 60
TCL: Running for 100000 steps
ETITLE: TS BOND ANGLE DIHED IMPRP ELECT VDW BOUNDARY MISC KINETIC TOTAL TEMP POTENTIAL TOTAL3 TEMPAVG PRESSURE GPRESSURE VOLUME PRESSAVG GPRESSAVG
ENERGY: 100000 0.0000 0.0000 0.0000 0.0000 -14226.0260 2482.2802 0.0000 0.0000 177.6290 -11566.1169 30.5283 -11743.7458 -11565.7313 30.5283 64.0025 124.7644 28067.8554 64.0025 124.7644
ENERGY: 200000 0.0000 0.0000 0.0000 0.0000 -14118.9808 2469.5344 0.0000 0.0000 357.9707 -11291.4756 61.5229 -11649.4464 -11290.7673 60.0057 299.7811 343.9787 28250.5976 2.9203 2.9017
TCL: Running 100000 steps at 90 kelvin.
TCL: Setting parameter langevinTemp to 90
TCL: Running for 100000 steps
ETITLE: TS BOND ANGLE DIHED IMPRP ELECT VDW BOUNDARY MISC KINETIC TOTAL TEMP POTENTIAL TOTAL3 TEMPAVG PRESSURE GPRESSURE VOLUME PRESSAVG GPRESSAVG
ENERGY: 200000 0.0000 0.0000 0.0000 0.0000 -14118.9808 2469.5344 0.0000 0.0000 357.7963 -11291.6501 61.4929 -11649.4464 -11290.8167 61.4929 285.1665 343.7842 28250.5976 285.1665 343.7842
ENERGY: 300000 0.0000 0.0000 0.0000 0.0000 -13966.5533 2396.7106 0.0000 0.0000 520.1029 -11049.7398 89.3879 -11569.8427 -11048.4990 90.0713 -56.5175 34.7660 28510.3141 5.0009 5.0007
TCL: Running 100000 steps at 120 kelvin.
TCL: Setting parameter langevinTemp to 120
TCL: Running for 100000 steps
ETITLE: TS BOND ANGLE DIHED IMPRP ELECT VDW BOUNDARY MISC KINETIC TOTAL TEMP POTENTIAL TOTAL3 TEMPAVG PRESSURE GPRESSURE VOLUME PRESSAVG GPRESSAVG
ENERGY: 300000 0.0000 0.0000 0.0000 0.0000 -13966.5533 2396.7106 0.0000 0.0000 519.8476 -11049.9951 89.3440 -11569.8427 -11049.0450 89.3440 -26.9590 35.1314 28510.3141 -26.9590 35.1314
ENERGY: 400000 0.0000 0.0000 0.0000 0.0000 -13706.8820 2289.0729 0.0000 0.0000 699.5546 -10718.2546 120.2295 -11417.8092 -10715.8019 120.0224 -439.4027 -386.6836 28722.8989 3.8273 3.9163
TCL: Running 100000 steps at 150 kelvin.
TCL: Setting parameter langevinTemp to 150
TCL: Running for 100000 steps
ETITLE: TS BOND ANGLE DIHED IMPRP ELECT VDW BOUNDARY MISC KINETIC TOTAL TEMP POTENTIAL TOTAL3 TEMPAVG PRESSURE GPRESSURE VOLUME PRESSAVG GPRESSAVG
ENERGY: 400000 0.0000 0.0000 0.0000 0.0000 -13706.8820 2289.0729 0.0000 0.0000 699.2131 -10718.5960 120.1708 -11417.8092 -10717.2604 120.1708 -449.3656 -385.8510 28722.8989 -449.3656 -385.8510
ENERGY: 500000 0.0000 0.0000 0.0000 0.0000 -13487.9304 2291.4661 0.0000 0.0000 850.5236 -10345.9407 146.1759 -11196.4643 -10344.4392 149.8459 315.3724 432.6168 28688.5352 3.8990 3.5797
TCL: Running 100000 steps at 180 kelvin.
TCL: Setting parameter langevinTemp to 180
TCL: Running for 100000 steps
ETITLE: TS BOND ANGLE DIHED IMPRP ELECT VDW BOUNDARY MISC KINETIC TOTAL TEMP POTENTIAL TOTAL3 TEMPAVG PRESSURE GPRESSURE VOLUME PRESSAVG GPRESSAVG
ENERGY: 500000 0.0000 0.0000 0.0000 0.0000 -13487.9304 2291.4661 0.0000 0.0000 850.0879 -10346.3764 146.1010 -11196.4643 -10344.8737 146.1010 380.2474 432.7370 28688.5352 380.2474 432.7370
ENERGY: 600000 0.0000 0.0000 0.0000 0.0000 -13057.6338 2085.6991 0.0000 0.0000 1030.4224 -9941.5123 177.0943 -10971.9347 -9939.1191 179.3945 -627.5405 -544.5555 29069.3830 3.2927 3.2514
TCL: Running 100000 steps at 210 kelvin.
TCL: Setting parameter langevinTemp to 210
TCL: Running for 100000 steps
ETITLE: TS BOND ANGLE DIHED IMPRP ELECT VDW BOUNDARY MISC KINETIC TOTAL TEMP POTENTIAL TOTAL3 TEMPAVG PRESSURE GPRESSURE VOLUME PRESSAVG GPRESSAVG
ENERGY: 600000 0.0000 0.0000 0.0000 0.0000 -13057.6338 2085.6991 0.0000 0.0000 1029.8946 -9942.0402 177.0036 -10971.9347 -9939.5928 177.0036 -603.1370 -544.9092 29069.3830 -603.1370 -544.9092
ENERGY: 700000 0.0000 0.0000 0.0000 0.0000 -12205.0374 1776.4915 0.0000 0.0000 1203.7222 -9224.8237 206.8786 -10428.5459 -9224.0907 209.7852 -1042.0137 -929.6750 29017.9765 2.9792 2.9515
TCL: Running 100000 steps at 240 kelvin.
TCL: Setting parameter langevinTemp to 240
TCL: Running for 100000 steps
ETITLE: TS BOND ANGLE DIHED IMPRP ELECT VDW BOUNDARY MISC KINETIC TOTAL TEMP POTENTIAL TOTAL3 TEMPAVG PRESSURE GPRESSURE VOLUME PRESSAVG GPRESSAVG
ENERGY: 700000 0.0000 0.0000 0.0000 0.0000 -12205.0374 1776.4915 0.0000 0.0000 1203.1071 -9225.4389 206.7729 -10428.5459 -9223.1877 206.7729 -1016.8684 -931.0622 29017.9765 -1016.8684 -931.0622
ENERGY: 800000 0.0000 0.0000 0.0000 0.0000 -11875.9283 1779.2055 0.0000 0.0000 1392.6322 -8704.0906 239.3458 -10096.7228 -8700.8752 239.6844 307.4620 423.6018 29079.1238 2.4716 2.6090
TCL: Running 100000 steps at 270 kelvin.
TCL: Setting parameter langevinTemp to 270
TCL: Running for 100000 steps
ETITLE: TS BOND ANGLE DIHED IMPRP ELECT VDW BOUNDARY MISC KINETIC TOTAL TEMP POTENTIAL TOTAL3 TEMPAVG PRESSURE GPRESSURE VOLUME PRESSAVG GPRESSAVG
ENERGY: 800000 0.0000 0.0000 0.0000 0.0000 -11875.9283 1779.2055 0.0000 0.0000 1391.9427 -8704.7801 239.2273 -10096.7228 -8702.6595 239.2273 340.0369 424.1393 29079.1238 340.0369 424.1393
ENERGY: 900000 0.0000 0.0000 0.0000 0.0000 -11330.6200 1690.0930 0.0000 0.0000 1619.9385 -8020.5884 278.4119 -9640.5269 -8018.7968 269.4775 852.9593 940.1611 29701.6621 2.6416 2.7327
TCL: Running 1000000 steps at 300 kelvin.
TCL: Setting parameter langevinTemp to 300
TCL: Running for 1000000 steps
ETITLE: TS BOND ANGLE DIHED IMPRP ELECT VDW BOUNDARY MISC KINETIC TOTAL TEMP POTENTIAL TOTAL3 TEMPAVG PRESSURE GPRESSURE VOLUME PRESSAVG GPRESSAVG
ENERGY: 900000 0.0000 0.0000 0.0000 0.0000 -11330.6200 1690.0930 0.0000 0.0000 1619.1716 -8021.3554 278.2801 -9640.5269 -8019.2025 278.2801 851.1246 939.7908 29701.6621 851.1246 939.7908
ENERGY: 1100000 0.0000 0.0000 0.0000 0.0000 -10545.3216 1319.1422 0.0000 0.0000 1782.7138 -7443.4656 306.3874 -9226.1794 -7440.2951 300.3961 -789.8137 -742.0193 30147.0988 4.7439 4.7671
ENERGY: 1300000 0.0000 0.0000 0.0000 0.0000 -10660.2391 1419.8557 0.0000 0.0000 1752.5969 -7487.7865 301.2114 -9240.3834 -7484.4275 300.3414 -132.4388 -48.0792 30235.3457 2.7468 2.6644
ENERGY: 1500000 0.0000 0.0000 0.0000 0.0000 -10678.1440 1456.8538 0.0000 0.0000 1736.3057 -7484.9845 298.4115 -9221.2902 -7480.5391 299.9380 58.6897 110.5496 30416.6245 3.9005 3.7669
ENERGY: 1700000 0.0000 0.0000 0.0000 0.0000 -10526.0868 1283.0900 0.0000 0.0000 1720.1880 -7522.8087 295.6414 -9242.9967 -7521.4544 299.9219 -1308.2477 -1217.7676 30571.7029 5.1370 5.1641
ENERGY: 1900000 0.0000 0.0000 0.0000 0.0000 -10640.9499 1424.5841 0.0000 0.0000 1759.2880 -7457.0779 302.3613 -9216.3658 -7451.7936 299.6511 -109.6777 -15.2316 30629.2558 2.0235 1.8699
TCL: Exiting due to exit command.
