Info: SIMULATION PARAMETERS:
Info: TIMESTEP               2
Info: NUMBER OF STEPS        0
Info: STEPS PER CYCLE        10
Info: PERIODIC CELL BASIS 1  38.861 0 0
Info: PERIODIC CELL BASIS 2  0 39.93 0
Info: PERIODIC CELL BASIS 3  0 0 39.527
Info: PERIODIC CELL CENTER   0 0 0
Info: WRAPPING WATERS AROUND PERIODIC BOUNDARIES ON OUTPUT.
Info: WRAPPING ALL CLUSTERS AROUND PERIODIC BOUNDARIES ON OUTPUT.
Info: FIRST LDB TIMESTEP     50
Info: LAST LDB TIMESTEP     -1
Info: HOM BACKGROUND SCALING 1
Info: PME BACKGROUND SCALING 1
Info: MIN ATOMS PER PATCH    40
Info: EMPTY PATCH LOAD       40 ATOMS
Info: INITIAL TEMPERATURE    300
Info: CENTER OF MASS MOVING INITIALLY? NO
Info: DIELECTRIC             1
Info: EXCLUDE                SCALED ONE-FOUR
Info: 1-4 ELECTROSTATICS SCALED BY 0.833333
Info: MODIFIED 1-4 VDW PARAMETERS WILL BE USED
Info: DCD FILENAME           mobley_9434451_min.dcd
Info: DCD FREQUENCY          5000
Info: DCD FIRST STEP         5000
Info: DCD FILE WILL CONTAIN UNIT CELL DATA
Info: XST FILENAME           mobley_9434451_min.xst
Info: XST FREQUENCY          5000
Info: NO VELOCITY DCD OUTPUT
Info: NO FORCE DCD OUTPUT
Info: OUTPUT FILENAME        mobley_9434451_min
Info: BINARY OUTPUT FILES WILL BE USED
Info: RESTART FILENAME       mobley_9434451_min.restart
Info: RESTART FREQUENCY      5000
Info: BINARY RESTART FILES WILL BE USED
Info: CUTOFF                 9
Info: PAIRLIST DISTANCE      11
Info: PAIRLIST SHRINK RATE   0.01
Info: PAIRLIST GROW RATE     0.01
Info: PAIRLIST TRIGGER       0.3
Info: PAIRLISTS PER CYCLE    2
Info: PAIRLISTS ENABLED
Info: MARGIN                 8
Info: HYDROGEN GROUP CUTOFF  2.5
Info: PATCH DIMENSION        21.5
Info: ENERGY OUTPUT STEPS    5000
Info: ENERGY EVALUATION STEPS    5000
Info: OUTPUT ENERGY PRECISION 4
Info: CROSSTERM ENERGY INCLUDED IN DIHEDRAL
Info: TIMING OUTPUT STEPS    50000
Info: PRESSURE OUTPUT STEPS  5000
Info: LANGEVIN DYNAMICS ACTIVE
Info: LANGEVIN TEMPERATURE   300
Info: LANGEVIN USING BBK INTEGRATOR
Info: LANGEVIN DAMPING COEFFICIENT IS 1 INVERSE PS
Info: LANGEVIN DYNAMICS APPLIED TO HYDROGENS
Info: LANGEVIN PISTON PRESSURE CONTROL ACTIVE
Info:        TARGET PRESSURE IS 1.01325 BAR
Info:     OSCILLATION PERIOD IS 50 FS
Info:             DECAY TIME IS 25 FS
Info:     PISTON TEMPERATURE IS 300 K
Info:       PRESSURE CONTROL IS GROUP-BASED
Info:    INITIAL STRAIN RATE IS 0 0 0
Info:       CELL FLUCTUATION IS ISOTROPIC
Info: PARTICLE MESH EWALD (PME) ACTIVE
Info: PME TOLERANCE               1e-06
Info: PME EWALD COEFFICIENT       0.348832
Info: PME INTERPOLATION ORDER     4
Info: PME GRID DIMENSIONS         40 40 40
Info: PME MAXIMUM GRID SPACING    1
Info: FULL ELECTROSTATIC EVALUATION FREQUENCY      2
Info: USING VERLET I (r-RESPA) MTS SCHEME.
Info: C1 SPLITTING OF LONG RANGE ELECTROSTATICS
Info: PLACING ATOMS IN PATCHES BY HYDROGEN GROUPS
Info: RIGID BONDS TO HYDROGEN : ALL
Info:         ERROR TOLERANCE : 1e-08
Info:          MAX ITERATIONS : 100
Info: RIGID WATER USING SETTLE ALGORITHM
Info: RANDOM NUMBER SEED     1741400970
Info: USE HYDROGEN BONDS?    NO
Info: Using AMBER format force field!
Info: AMBER PARM FILE        mobley_9434451.prmtop
Info: COORDINATE PDB         mobley_9434451.pdb
Info: Exclusions will be read from PARM file!
Info: SCNB (VDW SCALING)     2
Info: USING ARITHMETIC MEAN TO COMBINE L-J SIGMA PARAMETERS
Info: SUMMARY OF PARAMETERS:
Info: 6 BONDS
Info: 6 ANGLES
Info:   6 HARMONIC
Info:   0 COSINE-BASED
Info: 3 DIHEDRAL
Info: 0 IMPROPER
Info: 0 CROSSTERM
Info: 0 VDW
Info: 21 VDW_PAIRS
Info: 0 NBTHOLE_PAIRS
Info: STRUCTURE SUMMARY:
Info: 4418 ATOMS
Info: 4417 BONDS
Info: 18 ANGLES
Info: 18 DIHEDRALS
Info: 0 IMPROPERS
Info: 0 CROSSTERMS
Info: 4453 EXCLUSIONS
Info: 4414 RIGID BONDS
Info: 8840 DEGREES OF FREEDOM
Info: 1473 HYDROGEN GROUPS
Info: 4 ATOMS IN LARGEST HYDROGEN GROUP
Info: 1473 MIGRATION GROUPS
Info: 4 ATOMS IN LARGEST MIGRATION GROUP
Info: TOTAL MASS = 26588.5 amu
Info: TOTAL CHARGE = -0.000299979 e
Info: MASS DENSITY = 0.719856 g/cm^3
Info: ATOM DENSITY = 0.0720309 atoms/A^3
Info: ADDED 0 IMPLICIT EXCLUSIONS
Info: NONBONDED TABLE R-SQUARED SPACING: 0.0625
Info: NONBONDED TABLE SIZE: 705 POINTS
Info: REMOVING COM VELOCITY 0.0164455 0.0273124 0.197475
TCL: Minimizing for 2000 steps
ETITLE: TS BOND ANGLE DIHED IMPRP ELECT VDW BOUNDARY MISC KINETIC TOTAL TEMP POTENTIAL TOTAL3 TEMPAVG PRESSURE GPRESSURE VOLUME PRESSAVG GPRESSAVG
ENERGY: 0 0.2035 0.3071 0.0173 0.0000 -13731.8702 1560.4044 0.0000 0.0000 0.0000 -12170.9378 0.0000 -12170.9378 -12170.9378 0.0000 10995.5566 -15728.1666 61334.8258 10995.5566 -15728.1666
ENERGY: 400 1.0032 3.0507 0.1167 0.0000 -18928.6968 2929.8295 0.0000 0.0000 0.0000 -15994.6968 0.0000 -15994.6968 -15994.6968 0.0000 16893.7106 17005.5136 61334.8258 16893.7106 17005.5136
ENERGY: 800 0.3100 0.5585 0.0234 0.0000 -19731.0260 3252.5621 0.0000 0.0000 0.0000 -16477.5720 0.0000 -16477.5720 -16477.5720 0.0000 18548.3840 18664.2356 61334.8258 18548.3840 18664.2356
ENERGY: 1200 0.1522 0.4658 0.0303 0.0000 -20160.2238 3487.8328 0.0000 0.0000 0.0000 -16671.7427 0.0000 -16671.7427 -16671.7427 0.0000 19863.7924 19962.5255 61334.8258 19863.7924 19962.5255
ENERGY: 1600 0.1382 0.2103 0.0179 0.0000 -20280.5068 3528.0382 0.0000 0.0000 0.0000 -16752.1023 0.0000 -16752.1023 -16752.1023 0.0000 20098.2369 20205.0491 61334.8258 20098.2369 20205.0491
ENERGY: 2000 0.1798 0.1602 0.0193 0.0000 -20375.7746 3556.9333 0.0000 0.0000 0.0000 -16818.4820 0.0000 -16818.4820 -16818.4820 0.0000 20286.3288 20385.2701 61334.8258 20286.3288 20385.2701
TCL: Exiting due to exit command.
Info: NAMD 3.0.1 for Linux-x86_64-multicore
Info: Please visit http://www.ks.uiuc.edu/Research/namd/
Info: for updates, documentation, and support information.
Info: Please cite Phillips et al., J. Chem. Phys. 153:044130 (2020) doi:10.1063/5.0014475
Info: in all publications reporting results obtained with NAMD.
Info: Based on Charm++/Converse 80000 for multicore-linux-x86_64-gcc
Info: Built Mon Oct 14 11:11:06 CDT 2024 by dhardy on athine.ks.uiuc.edu
Info: 1 NAMD  3.0.1  Linux-x86_64-multicore  16    k006  z5358697
Info: Running on 16 processors, 1 nodes, 1 physical nodes.
Info: CPU topology information available.
Info: Charm++/Converse parallel runtime startup completed at 0.0105669 s
Info: 1043.45 MB of memory in use based on /proc/self/stat
Info: Configuration file is mobley_9434451_equil.namd
Info: Working in the current directory /srv/scratch/z5358697/prod_prep_12/9434451
TCL: Running 25000 steps at 30 kelvin.
TCL: Suspending until startup complete.
Info: SIMULATION PARAMETERS:
Info: TIMESTEP               2
Info: NUMBER OF STEPS        0
Info: STEPS PER CYCLE        10
Info: PERIODIC CELL BASIS 1  38.861 0 0
Info: PERIODIC CELL BASIS 2  0 39.93 0
Info: PERIODIC CELL BASIS 3  0 0 39.527
Info: PERIODIC CELL CENTER   0 0 0
Info: WRAPPING WATERS AROUND PERIODIC BOUNDARIES ON OUTPUT.
Info: WRAPPING ALL CLUSTERS AROUND PERIODIC BOUNDARIES ON OUTPUT.
Info: FIRST LDB TIMESTEP     50
Info: LAST LDB TIMESTEP     -1
Info: HOM BACKGROUND SCALING 1
Info: PME BACKGROUND SCALING 1
Info: MIN ATOMS PER PATCH    40
Info: EMPTY PATCH LOAD       40 ATOMS
Info: INITIAL TEMPERATURE    300
Info: CENTER OF MASS MOVING INITIALLY? NO
Info: DIELECTRIC             1
Info: EXCLUDE                SCALED ONE-FOUR
Info: 1-4 ELECTROSTATICS SCALED BY 0.833333
Info: MODIFIED 1-4 VDW PARAMETERS WILL BE USED
Info: DCD FILENAME           mobley_9434451_equil.dcd
Info: DCD FREQUENCY          5000
Info: DCD FIRST STEP         5000
Info: DCD FILE WILL CONTAIN UNIT CELL DATA
Info: XST FILENAME           mobley_9434451_equil.xst
Info: XST FREQUENCY          5000
Info: NO VELOCITY DCD OUTPUT
Info: NO FORCE DCD OUTPUT
Info: OUTPUT FILENAME        mobley_9434451_equil
Info: BINARY OUTPUT FILES WILL BE USED
Info: RESTART FILENAME       mobley_9434451_equil.restart
Info: RESTART FREQUENCY      5000
Info: BINARY RESTART FILES WILL BE USED
Info: CUTOFF                 9
Info: PAIRLIST DISTANCE      11
Info: PAIRLIST SHRINK RATE   0.01
Info: PAIRLIST GROW RATE     0.01
Info: PAIRLIST TRIGGER       0.3
Info: PAIRLISTS PER CYCLE    2
Info: PAIRLISTS ENABLED
Info: MARGIN                 8
Info: HYDROGEN GROUP CUTOFF  2.5
Info: PATCH DIMENSION        21.5
Info: ENERGY OUTPUT STEPS    5000
Info: ENERGY EVALUATION STEPS    5000
Info: OUTPUT ENERGY PRECISION 4
Info: CROSSTERM ENERGY INCLUDED IN DIHEDRAL
Info: TIMING OUTPUT STEPS    50000
Info: PRESSURE OUTPUT STEPS  5000
Info: LANGEVIN DYNAMICS ACTIVE
Info: LANGEVIN TEMPERATURE   30
Info: LANGEVIN USING BBK INTEGRATOR
Info: LANGEVIN DAMPING COEFFICIENT IS 1 INVERSE PS
Info: LANGEVIN DYNAMICS APPLIED TO HYDROGENS
Info: LANGEVIN PISTON PRESSURE CONTROL ACTIVE
Info:        TARGET PRESSURE IS 1.01325 BAR
Info:     OSCILLATION PERIOD IS 50 FS
Info:             DECAY TIME IS 25 FS
Info:     PISTON TEMPERATURE IS 300 K
Info:       PRESSURE CONTROL IS GROUP-BASED
Info:    INITIAL STRAIN RATE IS 0 0 0
Info:       CELL FLUCTUATION IS ISOTROPIC
Info: PARTICLE MESH EWALD (PME) ACTIVE
Info: PME TOLERANCE               1e-06
Info: PME EWALD COEFFICIENT       0.348832
Info: PME INTERPOLATION ORDER     4
Info: PME GRID DIMENSIONS         40 40 40
Info: PME MAXIMUM GRID SPACING    1
Info: FULL ELECTROSTATIC EVALUATION FREQUENCY      2
Info: USING VERLET I (r-RESPA) MTS SCHEME.
Info: C1 SPLITTING OF LONG RANGE ELECTROSTATICS
Info: PLACING ATOMS IN PATCHES BY HYDROGEN GROUPS
Info: RIGID BONDS TO HYDROGEN : ALL
Info:         ERROR TOLERANCE : 1e-08
Info:          MAX ITERATIONS : 100
Info: RIGID WATER USING SETTLE ALGORITHM
Info: RANDOM NUMBER SEED     1741400987
Info: USE HYDROGEN BONDS?    NO
Info: Using AMBER format force field!
Info: AMBER PARM FILE        mobley_9434451.prmtop
Info: COORDINATE PDB         mobley_9434451.pdb
Info: Exclusions will be read from PARM file!
Info: SCNB (VDW SCALING)     2
Info: USING ARITHMETIC MEAN TO COMBINE L-J SIGMA PARAMETERS
Info: BINARY COORDINATES     mobley_9434451_min.coor
Info: SUMMARY OF PARAMETERS:
Info: 6 BONDS
Info: 6 ANGLES
Info:   6 HARMONIC
Info:   0 COSINE-BASED
Info: 3 DIHEDRAL
Info: 0 IMPROPER
Info: 0 CROSSTERM
Info: 0 VDW
Info: 21 VDW_PAIRS
Info: 0 NBTHOLE_PAIRS
Info: STRUCTURE SUMMARY:
Info: 4418 ATOMS
Info: 4417 BONDS
Info: 18 ANGLES
Info: 18 DIHEDRALS
Info: 0 IMPROPERS
Info: 0 CROSSTERMS
Info: 4453 EXCLUSIONS
Info: 4414 RIGID BONDS
Info: 8840 DEGREES OF FREEDOM
Info: 1473 HYDROGEN GROUPS
Info: 4 ATOMS IN LARGEST HYDROGEN GROUP
Info: 1473 MIGRATION GROUPS
Info: 4 ATOMS IN LARGEST MIGRATION GROUP
Info: TOTAL MASS = 26588.5 amu
Info: TOTAL CHARGE = -0.000299979 e
Info: MASS DENSITY = 0.719856 g/cm^3
Info: ATOM DENSITY = 0.0720309 atoms/A^3
Info: ADDED 0 IMPLICIT EXCLUSIONS
Info: NONBONDED TABLE R-SQUARED SPACING: 0.0625
Info: NONBONDED TABLE SIZE: 705 POINTS
Info: REMOVING COM VELOCITY 0.0179359 0.0424119 -0.162285
TCL: Running for 25000 steps
ETITLE: TS BOND ANGLE DIHED IMPRP ELECT VDW BOUNDARY MISC KINETIC TOTAL TEMP POTENTIAL TOTAL3 TEMPAVG PRESSURE GPRESSURE VOLUME PRESSAVG GPRESSAVG
ENERGY: 0 0.1798 0.1602 0.0193 0.0000 -20375.7746 3556.9333 0.0000 0.0000 2596.9308 -14221.5512 295.6640 -16818.4820 -14221.0391 295.6640 382.3880 414.4068 61334.8258 382.3880 414.4068
ENERGY: 5000 0.2276 0.5406 0.0805 0.0000 -20921.1361 3470.4719 0.0000 0.0000 268.1017 -17181.7138 30.5237 -17449.8155 -17181.1163 47.0586 -1260.8901 -1187.7077 44459.7082 3.1945 3.0307
ENERGY: 10000 0.0094 0.9506 0.0433 0.0000 -21144.0681 3668.2566 0.0000 0.0000 256.8369 -17217.9712 29.2412 -17474.8082 -17217.3679 30.1553 -188.3407 -119.2913 44159.7755 1.7117 1.8400
ENERGY: 15000 0.0717 0.5038 0.0566 0.0000 -21338.4132 3835.2797 0.0000 0.0000 264.5223 -17237.9792 30.1162 -17502.5014 -17237.2599 30.2581 698.2023 751.3533 43792.1667 -3.4349 -3.5053
ENERGY: 20000 0.0557 0.5920 0.0731 0.0000 -21280.2428 3769.2223 0.0000 0.0000 252.6562 -17257.6434 28.7652 -17510.2996 -17256.8796 30.0129 306.2771 372.2694 43841.4547 -5.3163 -5.1941
ENERGY: 25000 0.1260 0.5545 0.0234 0.0000 -21198.8020 3681.5657 0.0000 0.0000 270.2900 -17246.2423 30.7729 -17516.5324 -17245.4927 29.7282 -189.5040 -127.9027 44052.7152 3.1880 3.2371
TCL: Running 25000 steps at 60 kelvin.
TCL: Setting parameter langevinTemp to 60
TCL: Running for 25000 steps
ETITLE: TS BOND ANGLE DIHED IMPRP ELECT VDW BOUNDARY MISC KINETIC TOTAL TEMP POTENTIAL TOTAL3 TEMPAVG PRESSURE GPRESSURE VOLUME PRESSAVG GPRESSAVG
ENERGY: 25000 0.1260 0.5545 0.0234 0.0000 -21198.8020 3681.5657 0.0000 0.0000 270.1594 -17246.3730 30.7580 -17516.5324 -17245.9175 30.7580 -192.4703 -127.7801 44052.7152 -192.4703 -127.7801
ENERGY: 30000 0.1943 1.2247 0.1253 0.0000 -21002.2854 3715.0791 0.0000 0.0000 520.3155 -16765.3465 59.2386 -17285.6620 -16763.6320 57.2390 647.1547 705.4022 43793.6443 3.4927 3.4658
ENERGY: 35000 0.2076 0.6018 0.1236 0.0000 -21085.7102 3743.6969 0.0000 0.0000 528.4788 -16812.6016 60.1680 -17341.0804 -16811.3050 60.2640 706.6469 768.4457 43547.5034 0.2305 0.1883
ENERGY: 40000 0.7604 1.1709 0.0604 0.0000 -21183.6664 3811.1884 0.0000 0.0000 519.3746 -16851.1116 59.1315 -17370.4863 -16850.0533 60.1320 1089.0799 1139.7560 43280.7572 4.1627 4.0087
ENERGY: 45000 0.0490 0.9176 0.0675 0.0000 -20951.6435 3562.7064 0.0000 0.0000 543.9084 -16843.9947 61.9247 -17387.9030 -16842.5293 60.1246 -435.3310 -362.8874 43825.1920 6.8818 7.1371
ENERGY: 50000 0.0918 1.0667 0.3551 0.0000 -20957.5426 3538.2874 0.0000 0.0000 532.1706 -16885.5709 60.5883 -17417.7415 -16884.4400 60.3067 -681.0757 -625.5114 43892.2380 8.1842 8.1123
TCL: Running 25000 steps at 90 kelvin.
TCL: Setting parameter langevinTemp to 90
TCL: Running for 25000 steps
ETITLE: TS BOND ANGLE DIHED IMPRP ELECT VDW BOUNDARY MISC KINETIC TOTAL TEMP POTENTIAL TOTAL3 TEMPAVG PRESSURE GPRESSURE VOLUME PRESSAVG GPRESSAVG
ENERGY: 50000 0.0918 1.0667 0.3551 0.0000 -20957.5426 3538.2874 0.0000 0.0000 531.9173 -16885.8242 60.5595 -17417.7415 -16884.5208 60.5595 -685.7268 -625.6752 43892.2380 -685.7268 -625.6752
ENERGY: 55000 0.4061 1.5281 0.1358 0.0000 -20695.5058 3529.2848 0.0000 0.0000 806.0303 -16358.1208 91.7676 -17164.1511 -16355.7112 87.5986 -30.2805 36.5831 43868.4948 2.7059 3.0796
ENERGY: 60000 0.1997 1.8645 0.2517 0.0000 -20641.6596 3440.0789 0.0000 0.0000 803.6261 -16395.6387 91.4939 -17199.2648 -16392.8701 90.4199 -598.6893 -563.3445 44060.6339 2.5620 2.6795
ENERGY: 65000 0.0710 0.7573 0.0634 0.0000 -20832.7913 3588.8650 0.0000 0.0000 797.5176 -16445.5170 90.7984 -17243.0346 -16443.6075 90.6383 181.6962 229.2059 43703.7276 5.2376 5.4757
ENERGY: 70000 0.2693 2.5127 0.1041 0.0000 -20790.1325 3536.7203 0.0000 0.0000 790.6052 -16459.9209 90.0115 -17250.5261 -16457.9437 90.2659 -93.2325 -59.2309 43717.9567 6.2037 6.0357
ENERGY: 75000 0.1795 1.1721 0.1905 0.0000 -20790.0758 3499.2708 0.0000 0.0000 798.6980 -16490.5648 90.9328 -17289.2629 -16489.0122 90.2479 -403.1961 -369.0089 43805.3645 5.0663 4.5703
TCL: Running 25000 steps at 120 kelvin.
TCL: Setting parameter langevinTemp to 120
TCL: Running for 25000 steps
ETITLE: TS BOND ANGLE DIHED IMPRP ELECT VDW BOUNDARY MISC KINETIC TOTAL TEMP POTENTIAL TOTAL3 TEMPAVG PRESSURE GPRESSURE VOLUME PRESSAVG GPRESSAVG
ENERGY: 75000 0.1795 1.1721 0.1905 0.0000 -20790.0758 3499.2708 0.0000 0.0000 798.3132 -16490.9497 90.8890 -17289.2629 -16489.0888 90.8890 -419.5475 -369.0987 43805.3645 -419.5475 -369.0987
ENERGY: 80000 0.4130 0.8866 0.2202 0.0000 -20577.1735 3592.3727 0.0000 0.0000 1058.0269 -15925.2541 120.4578 -16983.2810 -15921.2182 117.5892 899.9565 957.7642 43576.0519 1.4315 1.3452
ENERGY: 85000 0.6330 1.5789 0.0638 0.0000 -20541.2754 3508.8797 0.0000 0.0000 1046.4798 -15983.6401 119.1431 -17030.1200 -15983.0295 119.5338 340.5821 426.9264 43528.6941 2.1599 3.1415
ENERGY: 90000 0.6891 2.0546 0.1719 0.0000 -20384.9033 3374.4524 0.0000 0.0000 1055.6191 -15951.9163 120.1836 -17007.5354 -15950.0408 119.5615 -345.7200 -256.3226 43487.2493 3.8509 4.1885
ENERGY: 95000 0.1454 2.9379 0.5690 0.0000 -20473.9259 3433.2868 0.0000 0.0000 1089.2076 -15947.7794 124.0077 -17036.9869 -15944.9549 119.9094 -28.7777 58.1394 43293.1663 1.6174 1.8032
ENERGY: 100000 0.1320 1.1752 0.0691 0.0000 -20292.4330 3269.3898 0.0000 0.0000 1047.3457 -15974.3213 119.2417 -17021.6669 -15972.4693 120.8400 -873.7179 -844.8960 43489.2441 -1.7371 -1.6196
TCL: Running 25000 steps at 150 kelvin.
TCL: Setting parameter langevinTemp to 150
TCL: Running for 25000 steps
ETITLE: TS BOND ANGLE DIHED IMPRP ELECT VDW BOUNDARY MISC KINETIC TOTAL TEMP POTENTIAL TOTAL3 TEMPAVG PRESSURE GPRESSURE VOLUME PRESSAVG GPRESSAVG
ENERGY: 100000 0.1320 1.1752 0.0691 0.0000 -20292.4330 3269.3898 0.0000 0.0000 1046.8138 -15974.8531 119.1812 -17021.6669 -15972.2238 119.1812 -908.2900 -845.0924 43489.2441 -908.2900 -845.0924
ENERGY: 105000 0.5727 2.2708 0.5281 0.0000 -19939.0475 3251.8401 0.0000 0.0000 1309.5433 -15374.2925 149.0932 -16683.8358 -15370.7937 147.7672 -166.4492 -115.6737 43604.5766 1.8448 2.2908
ENERGY: 110000 0.8091 2.3387 0.5566 0.0000 -20063.3374 3281.7440 0.0000 0.0000 1317.1503 -15460.7388 149.9593 -16777.8891 -15455.5776 149.8698 -254.4455 -155.6469 43592.7329 4.3326 4.4928
ENERGY: 115000 0.2494 2.7364 0.2429 0.0000 -20208.3498 3433.0953 0.0000 0.0000 1310.2378 -15461.7880 149.1723 -16772.0258 -15457.2031 149.2392 751.1780 817.5159 43061.0926 2.6933 2.1918
ENERGY: 120000 0.1503 4.7840 0.3906 0.0000 -20161.8731 3380.5702 0.0000 0.0000 1293.7400 -15482.2380 147.2940 -16775.9780 -15477.5734 151.3581 320.2913 344.5190 43407.8697 -2.4149 -2.3843
ENERGY: 125000 0.6334 3.9537 0.3690 0.0000 -20129.3036 3289.6221 0.0000 0.0000 1332.6822 -15502.0432 151.7276 -16834.7254 -15499.2767 149.7429 -423.4749 -354.2902 43453.8279 3.2737 3.2814
TCL: Running 50000 steps at 180 kelvin.
TCL: Setting parameter langevinTemp to 180
TCL: Running for 50000 steps
ETITLE: TS BOND ANGLE DIHED IMPRP ELECT VDW BOUNDARY MISC KINETIC TOTAL TEMP POTENTIAL TOTAL3 TEMPAVG PRESSURE GPRESSURE VOLUME PRESSAVG GPRESSAVG
ENERGY: 125000 0.6334 3.9537 0.3690 0.0000 -20129.3036 3289.6221 0.0000 0.0000 1332.0057 -15502.7197 151.6506 -16834.7254 -15499.9445 151.6506 -417.6245 -354.4981 43453.8279 -417.6245 -354.4981
ENERGY: 135000 0.0463 1.4678 0.4908 0.0000 -19678.9777 3181.7814 0.0000 0.0000 1603.5606 -14891.6306 182.5675 -16495.1913 -14889.4439 180.3227 -143.9892 -75.5268 43510.7879 6.3706 6.5805
ENERGY: 145000 2.2078 2.9509 0.3795 0.0000 -19555.9324 3161.5603 0.0000 0.0000 1579.5357 -14809.2981 179.8323 -16388.8339 -14805.4262 180.2522 125.9097 120.0281 43380.6292 0.1464 1.0557
ENERGY: 155000 0.6261 1.6884 0.3766 0.0000 -19681.8012 3233.3667 0.0000 0.0000 1559.2104 -14886.5330 177.5182 -16445.7434 -14882.4366 179.6367 321.7248 391.0481 43240.0474 -3.7227 -3.7888
ENERGY: 165000 0.3672 3.3296 0.4382 0.0000 -19668.7828 3231.6740 0.0000 0.0000 1597.4066 -14835.5672 181.8669 -16432.9738 -14832.2605 181.1742 355.8192 405.4816 43399.2606 3.8697 3.9596
ENERGY: 175000 0.3866 2.2698 0.1677 0.0000 -19636.6889 3226.9361 0.0000 0.0000 1567.2854 -14839.6433 178.4375 -16406.9287 -14835.8587 180.7938 267.8752 328.4989 43334.0651 -1.4082 -1.6954
TCL: Running 50000 steps at 210 kelvin.
TCL: Setting parameter langevinTemp to 210
TCL: Running for 50000 steps
ETITLE: TS BOND ANGLE DIHED IMPRP ELECT VDW BOUNDARY MISC KINETIC TOTAL TEMP POTENTIAL TOTAL3 TEMPAVG PRESSURE GPRESSURE VOLUME PRESSAVG GPRESSAVG
ENERGY: 175000 0.3866 2.2698 0.1677 0.0000 -19636.6889 3226.9361 0.0000 0.0000 1566.4682 -14840.4605 178.3445 -16406.9287 -14838.0216 178.3445 271.6113 329.5304 43334.0651 271.6113 329.5304
ENERGY: 185000 0.4309 4.2791 0.6392 0.0000 -18764.8087 2914.5359 0.0000 0.0000 1835.4147 -14009.5089 208.9644 -15844.9237 -14005.9526 210.0851 161.4506 255.0432 43040.3744 -0.3340 -1.1567
ENERGY: 195000 0.7313 1.4115 0.3541 0.0000 -18539.3714 2785.4947 0.0000 0.0000 1816.7406 -13934.6392 206.8383 -15751.3798 -13929.4994 209.8370 -402.2130 -386.2859 43447.5290 1.9131 1.1041
ENERGY: 205000 0.3238 2.6669 0.5139 0.0000 -18722.4191 2925.4410 0.0000 0.0000 1837.1510 -13956.3225 209.1621 -15793.4735 -13952.4243 209.8562 322.8032 403.8229 42981.5974 5.6081 5.7702
ENERGY: 215000 0.3782 2.8097 0.4712 0.0000 -18601.1439 2803.5947 0.0000 0.0000 1838.3866 -13955.5035 209.3028 -15793.8901 -13952.1094 210.8934 -227.8588 -185.9866 43093.2372 2.9221 3.0593
ENERGY: 225000 0.5365 1.9100 0.8780 0.0000 -18641.6342 2845.0180 0.0000 0.0000 1808.7593 -13984.5323 205.9297 -15793.2917 -13978.9808 210.7431 -101.7959 -33.2294 43102.5532 4.3089 4.2490
TCL: Running 50000 steps at 240 kelvin.
TCL: Setting parameter langevinTemp to 240
TCL: Running for 50000 steps
ETITLE: TS BOND ANGLE DIHED IMPRP ELECT VDW BOUNDARY MISC KINETIC TOTAL TEMP POTENTIAL TOTAL3 TEMPAVG PRESSURE GPRESSURE VOLUME PRESSAVG GPRESSAVG
ENERGY: 225000 0.5365 1.9100 0.8780 0.0000 -18641.6342 2845.0180 0.0000 0.0000 1807.7921 -13985.4996 205.8195 -15793.2917 -13982.5707 205.8195 -119.5342 -32.6022 43102.5532 -119.5342 -32.6022
ENERGY: 235000 0.2884 2.0105 0.1571 0.0000 -17654.9052 2581.4636 0.0000 0.0000 2105.3148 -12965.6709 239.6929 -15070.9857 -12960.0134 240.0287 77.3166 193.5506 43402.5626 5.6362 5.2479
ENERGY: 245000 0.5643 3.4516 0.1692 0.0000 -17718.9982 2586.3151 0.0000 0.0000 2079.0044 -13049.4936 236.6974 -15128.4980 -13046.4545 239.4523 -179.3384 -104.8332 43922.1330 -2.4655 -3.0323
ENERGY: 255000 0.2603 3.7356 0.2823 0.0000 -17628.3198 2480.4256 0.0000 0.0000 2087.4911 -13056.1250 237.6636 -15143.6160 -13055.9826 240.0688 -682.1680 -605.3595 43821.1273 1.5833 1.6812
ENERGY: 265000 0.7752 2.6157 0.1906 0.0000 -17774.1659 2637.6980 0.0000 0.0000 2119.3262 -13013.5603 241.2881 -15132.8865 -13008.9979 239.6748 475.7927 562.1385 42981.9360 0.5570 0.4843
ENERGY: 275000 0.5984 2.3070 0.1788 0.0000 -17644.5971 2520.6499 0.0000 0.0000 2113.2395 -13007.6236 240.5951 -15120.8630 -13003.0295 240.7103 -493.3104 -357.7502 43826.5375 2.0546 2.7108
TCL: Running 50000 steps at 270 kelvin.
TCL: Setting parameter langevinTemp to 270
TCL: Running for 50000 steps
ETITLE: TS BOND ANGLE DIHED IMPRP ELECT VDW BOUNDARY MISC KINETIC TOTAL TEMP POTENTIAL TOTAL3 TEMPAVG PRESSURE GPRESSURE VOLUME PRESSAVG GPRESSAVG
ENERGY: 275000 0.5984 2.3070 0.1788 0.0000 -17644.5971 2520.6499 0.0000 0.0000 2112.1894 -13008.6736 240.4756 -15120.8630 -13005.2903 240.4756 -438.7369 -357.6813 43826.5375 -438.7369 -357.6813
ENERGY: 285000 0.5809 3.9225 1.2155 0.0000 -16996.4014 2443.4996 0.0000 0.0000 2370.0963 -12177.0867 269.8386 -14547.1830 -12172.3763 271.4728 267.2829 318.6364 44438.9316 4.5697 4.9563
ENERGY: 295000 0.1403 5.3006 1.6939 0.0000 -16663.5392 2221.6133 0.0000 0.0000 2393.2796 -12041.5115 272.4781 -14434.7911 -12035.1968 270.4138 -683.7033 -614.3236 44598.9746 -2.1820 -1.9657
ENERGY: 305000 1.5734 4.2695 0.5418 0.0000 -16902.6732 2382.5407 0.0000 0.0000 2443.8120 -12069.9357 278.2313 -14513.7477 -12065.1919 273.0782 33.5300 83.8750 44730.4918 1.0716 0.6624
ENERGY: 315000 0.3945 2.6810 0.8891 0.0000 -16815.7469 2314.0037 0.0000 0.0000 2394.4279 -12103.3507 272.6088 -14497.7786 -12098.4406 270.7888 -97.0588 -75.4187 44223.4312 3.6403 2.7417
ENERGY: 325000 0.4506 6.7291 0.1804 0.0000 -16871.6988 2357.9017 0.0000 0.0000 2409.4098 -12097.0272 274.3145 -14506.4370 -12093.8724 270.3828 235.8807 260.3238 43886.5072 -0.5337 -1.2974
TCL: Running 1000000 steps at 300 kelvin.
TCL: Setting parameter langevinTemp to 300
TCL: Running for 1000000 steps
ETITLE: TS BOND ANGLE DIHED IMPRP ELECT VDW BOUNDARY MISC KINETIC TOTAL TEMP POTENTIAL TOTAL3 TEMPAVG PRESSURE GPRESSURE VOLUME PRESSAVG GPRESSAVG
ENERGY: 325000 0.4506 6.7291 0.1804 0.0000 -16871.6988 2357.9017 0.0000 0.0000 2408.2033 -12098.2337 274.1772 -14506.4370 -12094.4422 274.1772 170.5194 259.9936 43886.5072 170.5194 259.9936
ENERGY: 525000 0.3554 2.9717 0.0415 0.0000 -16060.0886 2181.8533 0.0000 0.0000 2558.9043 -11315.9624 291.3347 -13874.8667 -11312.7526 299.9075 -10.3519 45.2191 45871.0787 3.1167 3.6423
ENERGY: 725000 0.0820 5.7747 1.0152 0.0000 -16172.5586 2183.9673 0.0000 0.0000 2697.4800 -11284.2394 307.1117 -13981.7194 -11277.9482 299.4351 -10.0675 93.5103 45368.0230 1.8245 1.1667
ENERGY: 925000 0.7136 6.3642 0.4185 0.0000 -15986.0423 2109.3581 0.0000 0.0000 2635.0656 -11234.1223 300.0057 -13869.1879 -11229.9728 298.5487 -222.6901 -159.6156 45870.9704 0.6980 1.0814
ENERGY: 1125000 0.1641 4.6908 0.9751 0.0000 -15914.5883 2050.1395 0.0000 0.0000 2585.9869 -11272.6319 294.4181 -13858.6187 -11270.0438 299.9293 -750.2714 -665.6860 46356.0975 2.7955 3.0006
ENERGY: 1325000 0.8572 5.0394 0.6119 0.0000 -15980.6806 2143.4536 0.0000 0.0000 2646.3859 -11184.3326 301.2946 -13830.7185 -11177.5761 301.8169 -209.9456 -109.4758 46182.1300 3.8847 4.0215
TCL: Exiting due to exit command.
