Info: SIMULATION PARAMETERS:
Info: TIMESTEP               2
Info: NUMBER OF STEPS        0
Info: STEPS PER CYCLE        10
Info: PERIODIC CELL BASIS 1  32.6293 0 0
Info: PERIODIC CELL BASIS 2  0 30.5499 0
Info: PERIODIC CELL BASIS 3  0 0 31.1687
Info: PERIODIC CELL CENTER   0 0 0
Info: WRAPPING WATERS AROUND PERIODIC BOUNDARIES ON OUTPUT.
Info: WRAPPING ALL CLUSTERS AROUND PERIODIC BOUNDARIES ON OUTPUT.
Info: FIRST LDB TIMESTEP     50
Info: LAST LDB TIMESTEP     -1
Info: HOM BACKGROUND SCALING 1
Info: PME BACKGROUND SCALING 1
Info: MIN ATOMS PER PATCH    40
Info: EMPTY PATCH LOAD       40 ATOMS
Info: VELOCITY FILE          mobley_994483_equil.vel
Info: CENTER OF MASS MOVING INITIALLY? NO
Info: DIELECTRIC             1
Info: EXCLUDE                SCALED ONE-FOUR
Info: 1-4 ELECTROSTATICS SCALED BY 0.833333
Info: MODIFIED 1-4 VDW PARAMETERS WILL BE USED
Info: DCD FILENAME           mobley_994483_prod.dcd
Info: DCD FREQUENCY          100000
Info: DCD FIRST STEP         100000
Info: DCD FILE WILL CONTAIN UNIT CELL DATA
Info: XST FILENAME           mobley_994483_prod.xst
Info: XST FREQUENCY          100000
Info: NO VELOCITY DCD OUTPUT
Info: NO FORCE DCD OUTPUT
Info: OUTPUT FILENAME        mobley_994483_prod
Info: BINARY OUTPUT FILES WILL BE USED
Info: RESTART FILENAME       mobley_994483_prod.restart
Info: RESTART FREQUENCY      100000
Info: BINARY RESTART FILES WILL BE USED
Info: CUTOFF                 9
Info: PAIRLIST DISTANCE      11
Info: PAIRLIST SHRINK RATE   0.01
Info: PAIRLIST GROW RATE     0.01
Info: PAIRLIST TRIGGER       0.3
Info: PAIRLISTS PER CYCLE    2
Info: PAIRLISTS ENABLED
Info: MARGIN                 2
Info: HYDROGEN GROUP CUTOFF  2.5
Info: PATCH DIMENSION        15.5
Info: ENERGY OUTPUT STEPS    100000
Info: ENERGY EVALUATION STEPS    100000
Info: OUTPUT ENERGY PRECISION 4
Info: CROSSTERM ENERGY INCLUDED IN DIHEDRAL
Info: TIMING OUTPUT STEPS    1000000
Info: PRESSURE OUTPUT STEPS  100000
Info: FIXED ATOMS ACTIVE
Info: ALCHEMICAL FEP ON
Info: FEP CURRENT LAMBDA VALUE     1
Info: FEP COMPARISON LAMBDA VALUE  0.95
Info: FEP INTRA-ALCHEMICAL NON-BONDED INTERACTIONS WILL BE RETAINED
Info: FEP INTRA-ALCHEMICAL BONDED INTERACTIONS WILL BE RETAINED
Info: FEP VDW SHIFTING COEFFICIENT 5
Info: FEP ELEC. ACTIVE FOR ANNIHILATED PARTICLES BETWEEN LAMBDA = 0 AND LAMBDA = 0.5
Info: FEP ELEC. ACTIVE FOR EXNIHILATED PARTICLES BETWEEN LAMBDA = 0.5 AND LAMBDA = 1
Info: FEP VDW ACTIVE FOR ANNIHILATED PARTICLES BETWEEN LAMBDA = 0 AND LAMBDA = 1
Info: FEP VDW ACTIVE FOR EXNIHILATED PARTICLES BETWEEN LAMBDA = 0 AND LAMBDA = 1
Info: FEP BOND ACTIVE FOR ANNIHILATED PARTICLES BETWEEN LAMBDA = 1 AND LAMBDA = 1
Info: FEP BOND ACTIVE FOR EXNIHILATED PARTICLES BETWEEN LAMBDA = 0 AND LAMBDA = 0
Info: LANGEVIN DYNAMICS ACTIVE
Info: LANGEVIN TEMPERATURE   300
Info: LANGEVIN USING BBK INTEGRATOR
Info: LANGEVIN DAMPING COEFFICIENT IS 1 INVERSE PS
Info: LANGEVIN DYNAMICS APPLIED TO HYDROGENS
Info: LANGEVIN PISTON PRESSURE CONTROL ACTIVE
Info:        TARGET PRESSURE IS 1.01325 BAR
Info:     OSCILLATION PERIOD IS 50 FS
Info:             DECAY TIME IS 25 FS
Info:     PISTON TEMPERATURE IS 300 K
Info:       PRESSURE CONTROL IS GROUP-BASED
Info:    INITIAL STRAIN RATE IS -0.000379992 -0.000379992 -0.000379992
Info:       CELL FLUCTUATION IS ISOTROPIC
Info: PARTICLE MESH EWALD (PME) ACTIVE
Info: PME TOLERANCE               1e-06
Info: PME EWALD COEFFICIENT       0.348832
Info: PME INTERPOLATION ORDER     4
Info: PME GRID DIMENSIONS         36 32 32
Info: PME MAXIMUM GRID SPACING    1
Info: FULL ELECTROSTATIC EVALUATION FREQUENCY      2
Info: USING VERLET I (r-RESPA) MTS SCHEME.
Info: C1 SPLITTING OF LONG RANGE ELECTROSTATICS
Info: PLACING ATOMS IN PATCHES BY HYDROGEN GROUPS
Info: RIGID BONDS TO HYDROGEN : ALL
Info:         ERROR TOLERANCE : 1e-08
Info:          MAX ITERATIONS : 100
Info: RIGID WATER USING SETTLE ALGORITHM
Info: RANDOM NUMBER SEED     1742442851
Info: USE HYDROGEN BONDS?    NO
Info: Using AMBER format force field!
Info: AMBER PARM FILE        mobley_994483.prmtop
Info: COORDINATE PDB         mobley_994483.pdb
Info: Exclusions will be read from PARM file!
Info: SCNB (VDW SCALING)     2
Info: USING ARITHMETIC MEAN TO COMBINE L-J SIGMA PARAMETERS
Info: BINARY COORDINATES     mobley_994483_equil.coor
Info: MIXED PRECISION AVX-512 TILES OPTIMIZATIONS: DISABLED
Info: SUMMARY OF PARAMETERS:
Info: 6 BONDS
Info: 6 ANGLES
Info:   6 HARMONIC
Info:   0 COSINE-BASED
Info: 2 DIHEDRAL
Info: 0 IMPROPER
Info: 0 CROSSTERM
Info: 0 VDW
Info: 21 VDW_PAIRS
Info: 0 NBTHOLE_PAIRS
Info: To read alchdata from file: mobley_994483.pdb
Info: To read alchflag data from column: 5
Info: STRUCTURE SUMMARY:
Info: 2987 ATOMS
Info: 2986 BONDS
Info: 12 ANGLES
Info: 9 DIHEDRALS
Info: 0 IMPROPERS
Info: 0 CROSSTERMS
Info: 3007 EXCLUSIONS
Info: 8 FIXED ATOMS
Info: 2984 RIGID BONDS
Info: 5 RIGID BONDS BETWEEN FIXED ATOMS
Info: ALCH: 0 ATOMS TO DISAPPEAR IN FINAL STATE
Info: ALCH: 8 ATOMS TO APPEAR IN FINAL STATE
Info: 5958 DEGREES OF FREEDOM
Info: 996 HYDROGEN GROUPS
Info: 4 ATOMS IN LARGEST HYDROGEN GROUP
Info: 996 MIGRATION GROUPS
Info: 4 ATOMS IN LARGEST MIGRATION GROUP
Info: 3 HYDROGEN GROUPS WITH ALL ATOMS FIXED
Info: TOTAL MASS = 17998.8 amu
Info: TOTAL CHARGE = 4.19095e-09 e
Info: MASS DENSITY = 0.961984 g/cm^3
Info: ATOM DENSITY = 0.0961389 atoms/A^3
Info: ADDED 0 IMPLICIT EXCLUSIONS
Info: NONBONDED TABLE R-SQUARED SPACING: 0.0625
Info: NONBONDED TABLE SIZE: 705 POINTS
Info: REMOVING COM VELOCITY -0.0352691 0.0325267 0.0142284
TCL: Running for 1500000 steps
ETITLE: TS BOND ANGLE DIHED IMPRP ELECT VDW BOUNDARY MISC KINETIC TOTAL TEMP POTENTIAL TOTAL3 TEMPAVG PRESSURE GPRESSURE VOLUME PRESSAVG GPRESSAVG
ENERGY: 0 0.0000 0.0000 0.0000 0.0000 -10815.1728 1461.7055 0.0000 0.0000 1756.2650 -7597.2022 296.6743 -9353.4672 -7593.6236 296.6743 10.6836 99.5434 31069.6435 10.6836 99.5434
ENERGY: 300000 0.0000 0.0000 0.0000 0.0000 -10839.0768 1447.3977 0.0000 0.0000 1781.2664 -7610.4127 300.8976 -9391.6791 -7608.0372 299.7913 -215.4091 -165.8309 31124.4974 4.2001 4.0106
ENERGY: 600000 0.0000 0.0000 0.0000 0.0000 -11003.4864 1572.0945 0.0000 0.0000 1774.8354 -7656.5565 299.8113 -9431.3920 -7653.4969 300.3261 566.5077 682.4114 30879.3151 4.1725 4.1626
ENERGY: 900000 0.0000 0.0000 0.0000 0.0000 -10887.0791 1478.3045 0.0000 0.0000 1737.7359 -7671.0387 293.5443 -9408.7746 -7666.4386 300.3384 40.2308 106.9126 30811.7373 2.6305 2.5821
ENERGY: 1200000 0.0000 0.0000 0.0000 0.0000 -10895.8004 1549.2956 0.0000 0.0000 1767.5549 -7578.9499 298.5814 -9346.5048 -7576.6458 300.0369 934.5362 986.5063 30601.5943 2.7398 2.8148
ENERGY: 1500000 0.0000 0.0000 0.0000 0.0000 -10717.3360 1354.3356 0.0000 0.0000 1774.6949 -7588.3055 299.7876 -9363.0004 -7584.6187 300.5920 -644.8440 -578.4784 30637.2845 2.7364 2.6502
TCL: Running FEP window   2: Lambda1 0.95   Lambda2 0.8999999999999999 [dLambda -0.050000000000000044]
TCL: Setting parameter firsttimestep to 0
TCL: Setting parameter alchLambda to 0.95
Info: NONBONDED TABLE R-SQUARED SPACING: 0.0625
Info: NONBONDED TABLE SIZE: 705 POINTS
TCL: Setting parameter alchLambda2 to 0.8999999999999999
Info: NONBONDED TABLE R-SQUARED SPACING: 0.0625
Info: NONBONDED TABLE SIZE: 705 POINTS
TCL: Running for 1500000 steps
ETITLE: TS BOND ANGLE DIHED IMPRP ELECT VDW BOUNDARY MISC KINETIC TOTAL TEMP POTENTIAL TOTAL3 TEMPAVG PRESSURE GPRESSURE VOLUME PRESSAVG GPRESSAVG
ENERGY: 0 0.0000 0.0000 0.0000 0.0000 -10717.0251 1354.3745 0.0000 0.0000 1773.8094 -7588.8413 299.6380 -9362.6506 -7585.8052 299.6380 -678.1909 -586.6459 30637.2845 -678.1909 -586.6459
ENERGY: 300000 0.0000 0.0000 0.0000 0.0000 -10823.6996 1447.8115 0.0000 0.0000 1788.1767 -7587.7113 302.0649 -9375.8880 -7586.4186 300.2543 88.6289 149.8692 30431.1203 2.7499 2.7085
ENERGY: 600000 0.0000 0.0000 0.0000 0.0000 -11092.8354 1620.3985 0.0000 0.0000 1755.8458 -7716.5911 296.6035 -9472.4369 -7714.8209 300.1617 814.1703 973.4146 30853.6542 2.6270 2.6363
ENERGY: 900000 0.0000 0.0000 0.0000 0.0000 -10884.2710 1497.6248 0.0000 0.0000 1822.0326 -7564.6135 307.7840 -9386.6462 -7558.3636 301.3661 397.1347 460.2555 30812.9073 3.0043 2.7240
ENERGY: 1200000 0.0000 0.0000 0.0000 0.0000 -10808.9288 1423.1758 0.0000 0.0000 1789.2424 -7596.5106 302.2450 -9385.7530 -7595.5119 299.3975 -217.7388 -134.5697 30790.7813 4.0876 4.0544
ENERGY: 1500000 0.0000 0.0000 0.0000 0.0000 -11001.1908 1558.9968 0.0000 0.0000 1741.5995 -7700.5946 294.1970 -9442.1940 -7700.2280 300.0536 803.8711 812.8787 30253.0495 2.0892 1.9727
TCL: Running FEP window   3: Lambda1 0.8999999999999999 Lambda2 0.8499999999999999 [dLambda -0.050000000000000044]
TCL: Setting parameter firsttimestep to 0
TCL: Setting parameter alchLambda to 0.8999999999999999
Info: NONBONDED TABLE R-SQUARED SPACING: 0.0625
Info: NONBONDED TABLE SIZE: 705 POINTS
TCL: Setting parameter alchLambda2 to 0.8499999999999999
Info: NONBONDED TABLE R-SQUARED SPACING: 0.0625
Info: NONBONDED TABLE SIZE: 705 POINTS
TCL: Running for 1500000 steps
ETITLE: TS BOND ANGLE DIHED IMPRP ELECT VDW BOUNDARY MISC KINETIC TOTAL TEMP POTENTIAL TOTAL3 TEMPAVG PRESSURE GPRESSURE VOLUME PRESSAVG GPRESSAVG
ENERGY: 0 0.0000 0.0000 0.0000 0.0000 -11001.0456 1558.9855 0.0000 0.0000 1740.7305 -7701.3296 294.0502 -9442.0601 -7699.6674 294.0502 723.2557 799.9916 30253.0495 723.2557 799.9916
ENERGY: 100000 0.0000 0.0000 0.0000 0.0000 -10819.0015 1438.1340 0.0000 0.0000 1734.3835 -7646.4840 292.9780 -9380.8676 -7642.7525 300.2845 18.4559 51.0906 30642.8320 2.7355 2.7472
ENERGY: 200000 0.0000 0.0000 0.0000 0.0000 -10934.0955 1526.4890 0.0000 0.0000 1825.3221 -7582.2844 308.3397 -9407.6065 -7580.2670 300.1971 314.8458 381.7532 31103.1403 3.1339 3.1914
ENERGY: 300000 0.0000 0.0000 0.0000 0.0000 -10785.5542 1406.9604 0.0000 0.0000 1795.4999 -7583.0940 303.3020 -9378.5938 -7579.3510 299.6145 -464.8343 -365.6723 30886.6070 4.3341 4.4360
ENERGY: 400000 0.0000 0.0000 0.0000 0.0000 -10756.0719 1385.5098 0.0000 0.0000 1749.8946 -7620.6675 295.5982 -9370.5621 -7617.3243 300.2910 -413.5042 -397.6264 30713.5076 4.2628 4.1173
