Info: SIMULATION PARAMETERS:
Info: TIMESTEP               1
Info: NUMBER OF STEPS        0
Info: STEPS PER CYCLE        10
Info: PERIODIC CELL BASIS 1  30 0 0
Info: PERIODIC CELL BASIS 2  0 30 0
Info: PERIODIC CELL BASIS 3  0 0 30
Info: PERIODIC CELL CENTER   0 0 0
Info: WRAPPING ALL CLUSTERS AROUND PERIODIC BOUNDARIES ON OUTPUT.
Info: FIRST LDB TIMESTEP     50
Info: LAST LDB TIMESTEP     -1
Info: HOM BACKGROUND SCALING 1
Info: MIN ATOMS PER PATCH    40
Info: EMPTY PATCH LOAD       40 ATOMS
Info: INITIAL TEMPERATURE    298
Info: CENTER OF MASS MOVING INITIALLY? NO
Info: DIELECTRIC             1
Info: EXCLUDE                SCALED ONE-FOUR
Info: 1-4 ELECTROSTATICS SCALED BY 1
Info: MODIFIED 1-4 VDW PARAMETERS WILL BE USED
Info: DCD FILENAME           output.dcd
Info: DCD FREQUENCY          10
Info: DCD FIRST STEP         10
Info: DCD FILE WILL CONTAIN UNIT CELL DATA
Info: NO EXTENDED SYSTEM TRAJECTORY OUTPUT
Info: NO VELOCITY DCD OUTPUT
Info: NO FORCE DCD OUTPUT
Info: OUTPUT FILENAME        output
Info: BINARY OUTPUT FILES WILL BE USED
Info: NO RESTART FILE
Info: SWITCHING ACTIVE
Info: SWITCHING ON           10
Info: SWITCHING OFF          12
Info: PAIRLIST DISTANCE      14
Info: PAIRLIST SHRINK RATE   0.01
Info: PAIRLIST GROW RATE     0.01
Info: PAIRLIST TRIGGER       0.3
Info: PAIRLISTS PER CYCLE    2
Info: PAIRLISTS ENABLED
Info: MARGIN                 0
Info: HYDROGEN GROUP CUTOFF  2.5
Info: PATCH DIMENSION        16.5
Info: ENERGY OUTPUT STEPS    10
Info: ENERGY EVALUATION STEPS    10
Info: OUTPUT ENERGY PRECISION 4
Info: CROSSTERM ENERGY INCLUDED IN DIHEDRAL
Info: TIMING OUTPUT STEPS    10
Info: LANGEVIN DYNAMICS ACTIVE
Info: LANGEVIN TEMPERATURE   298
Info: LANGEVIN USING BBK INTEGRATOR
Info: LANGEVIN DAMPING COEFFICIENT IS 4 INVERSE PS
Info: LANGEVIN DYNAMICS NOT APPLIED TO HYDROGENS
Info: MULTILEVEL SUMMATION METHOD (MSM) FOR ELECTROSTATICS ACTIVE
Info: MSM WITH C1 CUBIC INTERPOLATION AND C2 TAYLOR SPLITTING
Info: FULL ELECTROSTATIC EVALUATION FREQUENCY      1
Info: USING VERLET I (r-RESPA) MTS SCHEME.
Info: C1 SPLITTING OF LONG RANGE ELECTROSTATICS
Info: PLACING ATOMS IN PATCHES BY HYDROGEN GROUPS
Info: RIGID BONDS TO HYDROGEN : ALL
Info:         ERROR TOLERANCE : 1e-08
Info:          MAX ITERATIONS : 100
Info: RIGID WATER USING SETTLE ALGORITHM
Info: RANDOM NUMBER SEED     1740230481
Info: USE HYDROGEN BONDS?    NO
Info: COORDINATE PDB         ionized.pdb
Info: STRUCTURE FILE         ionized.psf
Info: PARAMETER file: CHARMM format!
Info: PARAMETERS             par_all27_prot_lipid.inp
Info: USING ARITHMETIC MEAN TO COMBINE L-J SIGMA PARAMETERS
Info: SUMMARY OF PARAMETERS:
Info: 180 BONDS
Info: 447 ANGLES
Info: 566 DIHEDRAL
Info: 46 IMPROPER
Info: 6 CROSSTERM
Info: 119 VDW
Info: 0 VDW_PAIRS
Info: 0 NBTHOLE_PAIRS
Info: STRUCTURE SUMMARY:
Info: 2476 ATOMS
Info: 1650 BONDS
Info: 825 ANGLES
Info: 0 DIHEDRALS
Info: 0 IMPROPERS
Info: 0 CROSSTERMS
Info: 0 EXCLUSIONS
Info: 2475 RIGID BONDS
Info: 4953 DEGREES OF FREEDOM
Info: 826 HYDROGEN GROUPS
Info: 3 ATOMS IN LARGEST HYDROGEN GROUP
Info: 826 MIGRATION GROUPS
Info: 3 ATOMS IN LARGEST MIGRATION GROUP
Info: TOTAL MASS = 14885.7 amu
Info: TOTAL CHARGE = 1 e
Info: MASS DENSITY = 0.915513 g/cm^3
Info: ATOM DENSITY = 0.0917037 atoms/A^3
Info: ADDED 2475 IMPLICIT EXCLUSIONS
Info: NONBONDED TABLE R-SQUARED SPACING: 0.0625
Info: NONBONDED TABLE SIZE: 769 POINTS
Info: REMOVING COM VELOCITY -0.139926 0.000776101 -0.00100198
Info: MSM using C1 cubic interpolation
Info: MSM using C2 Taylor splitting function
Info: MSM block size decomposition along X is 8 grid points
Info: MSM block size decomposition along Y is 8 grid points
Info: MSM block size decomposition along Z is 8 grid points
Info: MSM grid spacing along X is 2.5 A
Info: MSM grid spacing along Y is 2.5 A
Info: MSM grid spacing along Z is 2.5 A
Info: MSM using 3 levels
Info:     level 0:  [0..11] x [0..11] x [0..11]
Info:     level 1:  [0..5] x [0..5] x [0..5]
Info:     level 2:  [0..2] x [0..2] x [0..2]
Info: MSM finished calculating stencils
Info: MSM finished creating map for grid levels
Info: MSM finished creating map for patches
Info: MSM has 9 interpolation / anterpolation objects (one per patch)
Info: MSM grid level 0 decomposed into 8 blocks ( 2 x 2 x 2 )
Info: MSM grid level 1 decomposed into 1 block ( 1 x 1 x 1 )
Info: MSM grid level 2 decomposed into 1 block ( 1 x 1 x 1 )
Info: MSM grid cutoff calculation decomposed into 783 work objects
TCL: Minimizing for 100 steps
ETITLE: TS BOND ANGLE DIHED IMPRP ELECT VDW BOUNDARY MISC KINETIC TOTAL TEMP POTENTIAL TOTAL3 TEMPAVG PRESSURE GPRESSURE VOLUME PRESSAVG GPRESSAVG
ENERGY: 0 0.0000 0.0000 0.0000 0.0000 -7348.6497 6353.7252 0.0000 0.0000 0.0000 -994.9245 0.0000 -994.9245 -994.9245 0.0000 75204.0846 46356.0497 27000.0000 75204.0846 46356.0497
ENERGY: 20 0.0000 0.0000 0.0000 0.0000 -8744.5977 644.7588 0.0000 0.0000 0.0000 -8099.8389 0.0000 -8099.8389 -8099.8389 0.0000 14286.6721 -2608.4248 27000.0000 14286.6721 -2608.4248
ENERGY: 40 0.0000 0.0000 0.0000 0.0000 -9255.3675 673.7887 0.0000 0.0000 0.0000 -8581.5788 0.0000 -8581.5788 -8581.5788 0.0000 14306.7124 -3612.4722 27000.0000 14306.7124 -3612.4722
ENERGY: 60 0.0000 0.0000 0.0000 0.0000 -9570.7005 738.1054 0.0000 0.0000 0.0000 -8832.5950 0.0000 -8832.5950 -8832.5950 0.0000 14889.9942 -3661.0807 27000.0000 14889.9942 -3661.0807
ENERGY: 80 0.0000 0.0000 0.0000 0.0000 -9709.8781 782.3557 0.0000 0.0000 0.0000 -8927.5224 0.0000 -8927.5224 -8927.5224 0.0000 15330.6111 -3519.7087 27000.0000 15330.6111 -3519.7087
ENERGY: 100 0.0000 0.0000 0.0000 0.0000 -9872.7253 825.2459 0.0000 0.0000 0.0000 -9047.4794 0.0000 -9047.4794 -9047.4794 0.0000 15763.2745 15685.1293 27000.0000 15763.2745 15685.1293
TCL: Running for 2000 steps
ETITLE: TS BOND ANGLE DIHED IMPRP ELECT VDW BOUNDARY MISC KINETIC TOTAL TEMP POTENTIAL TOTAL3 TEMPAVG PRESSURE GPRESSURE VOLUME PRESSAVG GPRESSAVG
ENERGY: 100 0.0000 0.0000 0.0000 0.0000 -9872.7253 825.2459 0.0000 0.0000 1471.3635 -7576.1158 298.9799 -9047.4793 -7576.3531 298.9799 -4790.6143 -4790.6143 27000.0000 -4790.6143 -4790.6143
ENERGY: 500 0.0000 0.0000 0.0000 0.0000 -9347.3530 909.0336 0.0000 0.0000 1187.0733 -7251.2461 241.2124 -8438.3194 -7253.0618 240.5517 -2032.4405 -2026.2681 27000.0000 -1990.1709 -1993.5239
ENERGY: 900 0.0000 0.0000 0.0000 0.0000 -9298.6883 933.6290 0.0000 0.0000 1306.8575 -7058.2018 265.5524 -8365.0593 -7058.9302 265.0035 -1600.5579 -1577.2493 27000.0000 -1561.7885 -1553.1891
ENERGY: 1300 0.0000 0.0000 0.0000 0.0000 -9179.2431 902.0585 0.0000 0.0000 1321.0246 -6956.1600 268.4312 -8277.1846 -6954.5478 270.4444 -1634.2843 -1631.2770 27000.0000 -1681.2388 -1684.4213
ENERGY: 1700 0.0000 0.0000 0.0000 0.0000 -9048.3925 855.5962 0.0000 0.0000 1357.4318 -6835.3645 275.8291 -8192.7962 -6835.7650 280.6637 -1785.1395 -1797.6693 27000.0000 -1838.8414 -1831.1070
ENERGY: 2100 0.0000 0.0000 0.0000 0.0000 -9063.9200 887.3289 0.0000 0.0000 1417.1401 -6759.4510 287.9618 -8176.5910 -6759.1838 284.7209 -1507.1143 -1468.7646 27000.0000 -1409.4457 -1408.9919
