Info: SIMULATION PARAMETERS:
Info: TIMESTEP               2
Info: NUMBER OF STEPS        0
Info: STEPS PER CYCLE        10
Info: PERIODIC CELL BASIS 1  44.675 0 0
Info: PERIODIC CELL BASIS 2  0 45.969 0
Info: PERIODIC CELL BASIS 3  0 0 39.271
Info: PERIODIC CELL CENTER   0 0 0
Info: WRAPPING WATERS AROUND PERIODIC BOUNDARIES ON OUTPUT.
Info: WRAPPING ALL CLUSTERS AROUND PERIODIC BOUNDARIES ON OUTPUT.
Info: FIRST LDB TIMESTEP     50
Info: LAST LDB TIMESTEP     -1
Info: HOM BACKGROUND SCALING 1
Info: PME BACKGROUND SCALING 1
Info: MIN ATOMS PER PATCH    40
Info: EMPTY PATCH LOAD       40 ATOMS
Info: INITIAL TEMPERATURE    300
Info: CENTER OF MASS MOVING INITIALLY? NO
Info: DIELECTRIC             1
Info: EXCLUDE                SCALED ONE-FOUR
Info: 1-4 ELECTROSTATICS SCALED BY 0.833333
Info: MODIFIED 1-4 VDW PARAMETERS WILL BE USED
Info: DCD FILENAME           mobley_3976574_min.dcd
Info: DCD FREQUENCY          5000
Info: DCD FIRST STEP         5000
Info: DCD FILE WILL CONTAIN UNIT CELL DATA
Info: XST FILENAME           mobley_3976574_min.xst
Info: XST FREQUENCY          5000
Info: NO VELOCITY DCD OUTPUT
Info: NO FORCE DCD OUTPUT
Info: OUTPUT FILENAME        mobley_3976574_min
Info: BINARY OUTPUT FILES WILL BE USED
Info: RESTART FILENAME       mobley_3976574_min.restart
Info: RESTART FREQUENCY      5000
Info: BINARY RESTART FILES WILL BE USED
Info: CUTOFF                 9
Info: PAIRLIST DISTANCE      11
Info: PAIRLIST SHRINK RATE   0.01
Info: PAIRLIST GROW RATE     0.01
Info: PAIRLIST TRIGGER       0.3
Info: PAIRLISTS PER CYCLE    2
Info: PAIRLISTS ENABLED
Info: MARGIN                 8
Info: HYDROGEN GROUP CUTOFF  2.5
Info: PATCH DIMENSION        21.5
Info: ENERGY OUTPUT STEPS    5000
Info: ENERGY EVALUATION STEPS    5000
Info: OUTPUT ENERGY PRECISION 4
Info: CROSSTERM ENERGY INCLUDED IN DIHEDRAL
Info: TIMING OUTPUT STEPS    50000
Info: PRESSURE OUTPUT STEPS  5000
Info: LANGEVIN DYNAMICS ACTIVE
Info: LANGEVIN TEMPERATURE   300
Info: LANGEVIN USING BBK INTEGRATOR
Info: LANGEVIN DAMPING COEFFICIENT IS 1 INVERSE PS
Info: LANGEVIN DYNAMICS APPLIED TO HYDROGENS
Info: LANGEVIN PISTON PRESSURE CONTROL ACTIVE
Info:        TARGET PRESSURE IS 1.01325 BAR
Info:     OSCILLATION PERIOD IS 50 FS
Info:             DECAY TIME IS 25 FS
Info:     PISTON TEMPERATURE IS 300 K
Info:       PRESSURE CONTROL IS GROUP-BASED
Info:    INITIAL STRAIN RATE IS 0 0 0
Info:       CELL FLUCTUATION IS ISOTROPIC
Info: PARTICLE MESH EWALD (PME) ACTIVE
Info: PME TOLERANCE               1e-06
Info: PME EWALD COEFFICIENT       0.348832
Info: PME INTERPOLATION ORDER     4
Info: PME GRID DIMENSIONS         48 48 40
Info: PME MAXIMUM GRID SPACING    1
Info: FULL ELECTROSTATIC EVALUATION FREQUENCY      2
Info: USING VERLET I (r-RESPA) MTS SCHEME.
Info: C1 SPLITTING OF LONG RANGE ELECTROSTATICS
Info: PLACING ATOMS IN PATCHES BY HYDROGEN GROUPS
Info: RIGID BONDS TO HYDROGEN : ALL
Info:         ERROR TOLERANCE : 1e-08
Info:          MAX ITERATIONS : 100
Info: RIGID WATER USING SETTLE ALGORITHM
Info: RANDOM NUMBER SEED     1741332488
Info: USE HYDROGEN BONDS?    NO
Info: Using AMBER format force field!
Info: AMBER PARM FILE        mobley_3976574.prmtop
Info: COORDINATE PDB         mobley_3976574.pdb
Info: Exclusions will be read from PARM file!
Info: SCNB (VDW SCALING)     2
Info: USING ARITHMETIC MEAN TO COMBINE L-J SIGMA PARAMETERS
Info: SUMMARY OF PARAMETERS:
Info: 6 BONDS
Info: 5 ANGLES
Info:   5 HARMONIC
Info:   0 COSINE-BASED
Info: 3 DIHEDRAL
Info: 0 IMPROPER
Info: 0 CROSSTERM
Info: 0 VDW
Info: 21 VDW_PAIRS
Info: 0 NBTHOLE_PAIRS
Info: STRUCTURE SUMMARY:
Info: 5890 ATOMS
Info: 5892 BONDS
Info: 38 ANGLES
Info: 64 DIHEDRALS
Info: 0 IMPROPERS
Info: 0 CROSSTERMS
Info: 5977 EXCLUSIONS
Info: 5871 RIGID BONDS
Info: 11799 DEGREES OF FREEDOM
Info: 1975 HYDROGEN GROUPS
Info: 3 ATOMS IN LARGEST HYDROGEN GROUP
Info: 1975 MIGRATION GROUPS
Info: 3 ATOMS IN LARGEST MIGRATION GROUP
Info: TOTAL MASS = 35595.7 amu
Info: TOTAL CHARGE = -9.99793e-05 e
Info: MASS DENSITY = 0.732917 g/cm^3
Info: ATOM DENSITY = 0.0730321 atoms/A^3
Info: ADDED 0 IMPLICIT EXCLUSIONS
Info: NONBONDED TABLE R-SQUARED SPACING: 0.0625
Info: NONBONDED TABLE SIZE: 705 POINTS
Info: REMOVING COM VELOCITY 0.0370296 -0.160321 -0.144095
TCL: Minimizing for 2000 steps
ETITLE: TS BOND ANGLE DIHED IMPRP ELECT VDW BOUNDARY MISC KINETIC TOTAL TEMP POTENTIAL TOTAL3 TEMPAVG PRESSURE GPRESSURE VOLUME PRESSAVG GPRESSAVG
ENERGY: 0 0.5449 2.2702 0.0002 0.0000 -18072.9332 2021.2613 0.0000 0.0000 0.0000 -16048.8567 0.0000 -16048.8567 -16048.8567 0.0000 11058.3889 -15898.9825 80649.4812 11058.3889 -15898.9825
ENERGY: 400 26.8532 20.7703 0.1068 0.0000 -24818.3251 3689.6532 0.0000 0.0000 0.0000 -21080.9417 0.0000 -21080.9417 -21080.9417 0.0000 16249.6483 16389.3095 80649.4812 16249.6483 16389.3095
ENERGY: 800 6.7735 4.0506 0.1101 0.0000 -25941.2817 4179.1222 0.0000 0.0000 0.0000 -21751.2253 0.0000 -21751.2253 -21751.2253 0.0000 18247.7595 18368.9709 80649.4812 18247.7595 18368.9709
ENERGY: 1200 5.0054 1.9021 0.1958 0.0000 -26520.8640 4440.4341 0.0000 0.0000 0.0000 -22073.3265 0.0000 -22073.3265 -22073.3265 0.0000 19290.9540 19416.4341 80649.4812 19290.9540 19416.4341
ENERGY: 1600 0.6977 0.4057 0.0565 0.0000 -26723.6476 4514.5151 0.0000 0.0000 0.0000 -22207.9726 0.0000 -22207.9726 -22207.9726 0.0000 19658.5796 19777.5425 80649.4812 19658.5796 19777.5425
ENERGY: 2000 0.7447 0.3337 0.1603 0.0000 -26935.3926 4619.8401 0.0000 0.0000 0.0000 -22314.3137 0.0000 -22314.3137 -22314.3137 0.0000 20112.8961 20224.9940 80649.4812 20112.8961 20224.9940
TCL: Exiting due to exit command.
Info: NAMD 3.0.1 for Linux-x86_64-multicore
Info: Please visit http://www.ks.uiuc.edu/Research/namd/
Info: for updates, documentation, and support information.
Info: Please cite Phillips et al., J. Chem. Phys. 153:044130 (2020) doi:10.1063/5.0014475
Info: in all publications reporting results obtained with NAMD.
Info: Based on Charm++/Converse 80000 for multicore-linux-x86_64-gcc
Info: Built Mon Oct 14 11:11:06 CDT 2024 by dhardy on athine.ks.uiuc.edu
Info: 1 NAMD  3.0.1  Linux-x86_64-multicore  16    k011  z5358697
Info: Running on 16 processors, 1 nodes, 1 physical nodes.
Info: CPU topology information available.
Info: Charm++/Converse parallel runtime startup completed at 0.0101788 s
Info: 1043.45 MB of memory in use based on /proc/self/stat
Info: Configuration file is mobley_3976574_equil.namd
Info: Working in the current directory /srv/scratch/z5358697/prod_prep_4/3976574
TCL: Running 25000 steps at 30 kelvin.
TCL: Suspending until startup complete.
Info: SIMULATION PARAMETERS:
Info: TIMESTEP               2
Info: NUMBER OF STEPS        0
Info: STEPS PER CYCLE        10
Info: PERIODIC CELL BASIS 1  44.675 0 0
Info: PERIODIC CELL BASIS 2  0 45.969 0
Info: PERIODIC CELL BASIS 3  0 0 39.271
Info: PERIODIC CELL CENTER   0 0 0
Info: WRAPPING WATERS AROUND PERIODIC BOUNDARIES ON OUTPUT.
Info: WRAPPING ALL CLUSTERS AROUND PERIODIC BOUNDARIES ON OUTPUT.
Info: FIRST LDB TIMESTEP     50
Info: LAST LDB TIMESTEP     -1
Info: HOM BACKGROUND SCALING 1
Info: PME BACKGROUND SCALING 1
Info: MIN ATOMS PER PATCH    40
Info: EMPTY PATCH LOAD       40 ATOMS
Info: INITIAL TEMPERATURE    300
Info: CENTER OF MASS MOVING INITIALLY? NO
Info: DIELECTRIC             1
Info: EXCLUDE                SCALED ONE-FOUR
Info: 1-4 ELECTROSTATICS SCALED BY 0.833333
Info: MODIFIED 1-4 VDW PARAMETERS WILL BE USED
Info: DCD FILENAME           mobley_3976574_equil.dcd
Info: DCD FREQUENCY          5000
Info: DCD FIRST STEP         5000
Info: DCD FILE WILL CONTAIN UNIT CELL DATA
Info: XST FILENAME           mobley_3976574_equil.xst
Info: XST FREQUENCY          5000
Info: NO VELOCITY DCD OUTPUT
Info: NO FORCE DCD OUTPUT
Info: OUTPUT FILENAME        mobley_3976574_equil
Info: BINARY OUTPUT FILES WILL BE USED
Info: RESTART FILENAME       mobley_3976574_equil.restart
Info: RESTART FREQUENCY      5000
Info: BINARY RESTART FILES WILL BE USED
Info: CUTOFF                 9
Info: PAIRLIST DISTANCE      11
Info: PAIRLIST SHRINK RATE   0.01
Info: PAIRLIST GROW RATE     0.01
Info: PAIRLIST TRIGGER       0.3
Info: PAIRLISTS PER CYCLE    2
Info: PAIRLISTS ENABLED
Info: MARGIN                 8
Info: HYDROGEN GROUP CUTOFF  2.5
Info: PATCH DIMENSION        21.5
Info: ENERGY OUTPUT STEPS    5000
Info: ENERGY EVALUATION STEPS    5000
Info: OUTPUT ENERGY PRECISION 4
Info: CROSSTERM ENERGY INCLUDED IN DIHEDRAL
Info: TIMING OUTPUT STEPS    50000
Info: PRESSURE OUTPUT STEPS  5000
Info: LANGEVIN DYNAMICS ACTIVE
Info: LANGEVIN TEMPERATURE   30
Info: LANGEVIN USING BBK INTEGRATOR
Info: LANGEVIN DAMPING COEFFICIENT IS 1 INVERSE PS
Info: LANGEVIN DYNAMICS APPLIED TO HYDROGENS
Info: LANGEVIN PISTON PRESSURE CONTROL ACTIVE
Info:        TARGET PRESSURE IS 1.01325 BAR
Info:     OSCILLATION PERIOD IS 50 FS
Info:             DECAY TIME IS 25 FS
Info:     PISTON TEMPERATURE IS 300 K
Info:       PRESSURE CONTROL IS GROUP-BASED
Info:    INITIAL STRAIN RATE IS 0 0 0
Info:       CELL FLUCTUATION IS ISOTROPIC
Info: PARTICLE MESH EWALD (PME) ACTIVE
Info: PME TOLERANCE               1e-06
Info: PME EWALD COEFFICIENT       0.348832
Info: PME INTERPOLATION ORDER     4
Info: PME GRID DIMENSIONS         48 48 40
Info: PME MAXIMUM GRID SPACING    1
Info: FULL ELECTROSTATIC EVALUATION FREQUENCY      2
Info: USING VERLET I (r-RESPA) MTS SCHEME.
Info: C1 SPLITTING OF LONG RANGE ELECTROSTATICS
Info: PLACING ATOMS IN PATCHES BY HYDROGEN GROUPS
Info: RIGID BONDS TO HYDROGEN : ALL
Info:         ERROR TOLERANCE : 1e-08
Info:          MAX ITERATIONS : 100
Info: RIGID WATER USING SETTLE ALGORITHM
Info: RANDOM NUMBER SEED     1741332511
Info: USE HYDROGEN BONDS?    NO
Info: Using AMBER format force field!
Info: AMBER PARM FILE        mobley_3976574.prmtop
Info: COORDINATE PDB         mobley_3976574.pdb
Info: Exclusions will be read from PARM file!
Info: SCNB (VDW SCALING)     2
Info: USING ARITHMETIC MEAN TO COMBINE L-J SIGMA PARAMETERS
Info: BINARY COORDINATES     mobley_3976574_min.coor
Info: SUMMARY OF PARAMETERS:
Info: 6 BONDS
Info: 5 ANGLES
Info:   5 HARMONIC
Info:   0 COSINE-BASED
Info: 3 DIHEDRAL
Info: 0 IMPROPER
Info: 0 CROSSTERM
Info: 0 VDW
Info: 21 VDW_PAIRS
Info: 0 NBTHOLE_PAIRS
Info: STRUCTURE SUMMARY:
Info: 5890 ATOMS
Info: 5892 BONDS
Info: 38 ANGLES
Info: 64 DIHEDRALS
Info: 0 IMPROPERS
Info: 0 CROSSTERMS
Info: 5977 EXCLUSIONS
Info: 5871 RIGID BONDS
Info: 11799 DEGREES OF FREEDOM
Info: 1975 HYDROGEN GROUPS
Info: 3 ATOMS IN LARGEST HYDROGEN GROUP
Info: 1975 MIGRATION GROUPS
Info: 3 ATOMS IN LARGEST MIGRATION GROUP
Info: TOTAL MASS = 35595.7 amu
Info: TOTAL CHARGE = -9.99793e-05 e
Info: MASS DENSITY = 0.732917 g/cm^3
Info: ATOM DENSITY = 0.0730321 atoms/A^3
Info: ADDED 0 IMPLICIT EXCLUSIONS
Info: NONBONDED TABLE R-SQUARED SPACING: 0.0625
Info: NONBONDED TABLE SIZE: 705 POINTS
Info: REMOVING COM VELOCITY 0.111858 0.0478809 -0.133176
TCL: Running for 25000 steps
ETITLE: TS BOND ANGLE DIHED IMPRP ELECT VDW BOUNDARY MISC KINETIC TOTAL TEMP POTENTIAL TOTAL3 TEMPAVG PRESSURE GPRESSURE VOLUME PRESSAVG GPRESSAVG
ENERGY: 0 0.7447 0.3337 0.1603 0.0000 -26935.3926 4619.8401 0.0000 0.0000 3508.5155 -18805.7982 299.2737 -22314.3137 -18805.0729 299.2737 144.4325 181.6313 80649.4812 144.4325 181.6313
ENERGY: 5000 1.3113 0.7007 0.4451 0.0000 -28359.2244 5002.9060 0.0000 0.0000 359.2740 -22994.5875 30.6458 -23353.8615 -22993.6083 47.7799 498.5448 567.5397 56856.1271 4.5610 4.5028
ENERGY: 10000 0.9876 0.8707 0.7727 0.0000 -28220.7171 4839.0046 0.0000 0.0000 356.8136 -23022.2679 30.4359 -23379.0815 -23021.2992 30.1459 -243.2399 -171.2968 57098.5000 4.4405 4.2781
ENERGY: 15000 1.0983 0.5409 0.4989 0.0000 -28304.7895 4906.8551 0.0000 0.0000 346.5296 -23049.2666 29.5587 -23395.7962 -23048.2416 30.1950 60.9058 125.9827 57001.9514 1.8173 2.0340
ENERGY: 20000 1.4875 0.4596 0.4256 0.0000 -28211.1512 4800.6486 0.0000 0.0000 353.7657 -23054.3641 30.1759 -23408.1299 -23053.3415 30.1341 -433.5550 -372.9267 57087.9577 5.5076 5.4898
ENERGY: 25000 0.8214 0.8449 0.8866 0.0000 -28409.0886 4992.6529 0.0000 0.0000 342.3565 -23071.5263 29.2028 -23413.8828 -23070.3219 29.9390 394.2191 457.7254 56875.8428 1.0808 1.1914
TCL: Running 25000 steps at 60 kelvin.
TCL: Setting parameter langevinTemp to 60
TCL: Running for 25000 steps
ETITLE: TS BOND ANGLE DIHED IMPRP ELECT VDW BOUNDARY MISC KINETIC TOTAL TEMP POTENTIAL TOTAL3 TEMPAVG PRESSURE GPRESSURE VOLUME PRESSAVG GPRESSAVG
ENERGY: 25000 0.8214 0.8449 0.8866 0.0000 -28409.0886 4992.6529 0.0000 0.0000 342.1853 -23071.6976 29.1881 -23413.8828 -23071.1576 29.1881 389.8884 458.0270 56875.8428 389.8884 458.0270
ENERGY: 30000 1.3488 1.1750 1.3146 0.0000 -27768.4370 4649.5575 0.0000 0.0000 699.7667 -22415.2744 59.6896 -23115.0412 -22413.8619 57.1364 -521.6207 -442.0685 57327.3569 4.5949 4.6991
ENERGY: 35000 1.2367 1.1924 1.5199 0.0000 -27777.6588 4621.4892 0.0000 0.0000 713.9065 -22438.3141 60.8957 -23152.2205 -22436.3209 60.2507 -761.2774 -700.8396 57577.6445 5.9181 5.8419
ENERGY: 40000 1.1097 1.4390 1.3812 0.0000 -28239.9818 5040.0803 0.0000 0.0000 710.9717 -22484.9999 60.6453 -23195.9716 -22482.6274 60.2636 1093.2968 1199.6055 56617.4808 0.4212 0.7217
ENERGY: 45000 1.5435 0.7735 1.2775 0.0000 -27913.5836 4718.4099 0.0000 0.0000 707.1723 -22484.4069 60.3213 -23191.5793 -22482.2703 60.4507 -298.4040 -208.4966 57075.8966 0.8763 0.8454
ENERGY: 50000 1.0109 1.1620 0.9831 0.0000 -28017.2808 4796.3166 0.0000 0.0000 694.9788 -22522.8295 59.2812 -23217.8083 -22521.1350 60.0205 18.1251 107.9773 56834.2012 2.6562 2.9835
TCL: Running 25000 steps at 90 kelvin.
TCL: Setting parameter langevinTemp to 90
TCL: Running for 25000 steps
ETITLE: TS BOND ANGLE DIHED IMPRP ELECT VDW BOUNDARY MISC KINETIC TOTAL TEMP POTENTIAL TOTAL3 TEMPAVG PRESSURE GPRESSURE VOLUME PRESSAVG GPRESSAVG
ENERGY: 50000 1.0109 1.1620 0.9831 0.0000 -28017.2808 4796.3166 0.0000 0.0000 694.6344 -22523.1739 59.2518 -23217.8083 -22521.8738 59.2518 48.9958 108.0381 56834.2012 48.9958 108.0381
ENERGY: 55000 2.0836 1.9552 2.3166 0.0000 -27720.8535 4885.7393 0.0000 0.0000 1039.5070 -21789.2518 88.6692 -22828.7587 -21787.7687 87.0989 1014.6244 1101.0053 57128.5122 3.3700 3.3652
ENERGY: 60000 1.8857 1.1857 1.8904 0.0000 -27628.1863 4744.8862 0.0000 0.0000 1054.9112 -21823.4271 89.9831 -22878.3383 -21820.6853 90.3901 455.6582 508.9049 57122.1623 1.7756 1.7729
ENERGY: 65000 1.9337 1.5412 2.2678 0.0000 -27728.4542 4755.2954 0.0000 0.0000 1041.0161 -21926.4000 88.7979 -22967.4161 -21923.8283 90.1738 295.5401 356.1464 56954.2687 0.3304 0.6224
ENERGY: 70000 2.6704 1.3954 1.4034 0.0000 -27542.2563 4574.4621 0.0000 0.0000 1071.3121 -21891.0128 91.3821 -22962.3249 -21889.0788 89.8000 -398.5375 -346.5552 57054.7777 4.6882 4.9139
ENERGY: 75000 3.6024 1.9612 2.3892 0.0000 -27697.4018 4710.5748 0.0000 0.0000 1045.9110 -21932.9632 89.2154 -22978.8742 -21931.2482 90.1162 151.2564 197.7932 56880.0059 -3.8103 -3.7267
TCL: Running 25000 steps at 120 kelvin.
TCL: Setting parameter langevinTemp to 120
TCL: Running for 25000 steps
ETITLE: TS BOND ANGLE DIHED IMPRP ELECT VDW BOUNDARY MISC KINETIC TOTAL TEMP POTENTIAL TOTAL3 TEMPAVG PRESSURE GPRESSURE VOLUME PRESSAVG GPRESSAVG
ENERGY: 75000 3.6024 1.9612 2.3892 0.0000 -27697.4018 4710.5748 0.0000 0.0000 1045.3720 -21933.5022 89.1694 -22978.8742 -21931.6520 89.1694 135.7656 197.2840 56880.0059 135.7656 197.2840
ENERGY: 80000 2.2002 1.3566 2.2125 0.0000 -26970.0942 4437.5577 0.0000 0.0000 1403.8605 -21122.9067 119.7482 -22526.7672 -21117.9898 117.6603 -169.2878 -128.6419 57333.5859 -1.4766 -1.4940
ENERGY: 85000 2.5505 1.6911 3.8395 0.0000 -27061.0893 4444.3872 0.0000 0.0000 1406.5304 -21202.0908 119.9760 -22608.6211 -21198.8317 120.8454 -397.8353 -337.6534 57294.9754 3.3012 3.0983
ENERGY: 90000 2.0460 1.6985 2.3664 0.0000 -27218.8887 4556.9511 0.0000 0.0000 1447.7031 -21208.1237 123.4880 -22655.8268 -21204.3923 120.9934 89.8477 160.4192 57151.6488 0.7106 0.8428
ENERGY: 95000 5.0045 2.9892 2.3681 0.0000 -27099.8763 4416.9497 0.0000 0.0000 1377.4005 -21295.1642 117.4912 -22672.5647 -21292.6531 120.7078 -740.1632 -671.0737 57594.4394 2.4157 2.4023
ENERGY: 100000 4.5761 2.5300 1.7093 0.0000 -27277.5031 4541.9686 0.0000 0.0000 1415.7503 -21310.9687 120.7624 -22726.7190 -21308.2612 120.2346 -207.4902 -135.2046 57310.2336 2.8929 2.9700
TCL: Running 25000 steps at 150 kelvin.
TCL: Setting parameter langevinTemp to 150
TCL: Running for 25000 steps
ETITLE: TS BOND ANGLE DIHED IMPRP ELECT VDW BOUNDARY MISC KINETIC TOTAL TEMP POTENTIAL TOTAL3 TEMPAVG PRESSURE GPRESSURE VOLUME PRESSAVG GPRESSAVG
ENERGY: 100000 4.5761 2.5300 1.7093 0.0000 -27277.5031 4541.9686 0.0000 0.0000 1415.0568 -21311.6622 120.7033 -22726.7190 -21308.7581 120.7033 -196.9677 -135.3504 57310.2336 -196.9677 -135.3504
ENERGY: 105000 2.8070 2.3377 2.1670 0.0000 -26686.7369 4391.9203 0.0000 0.0000 1743.4324 -20544.0725 148.7135 -22287.5049 -20539.7915 146.6169 37.6507 116.4186 57382.6695 4.2348 3.8899
ENERGY: 110000 2.6889 3.1485 3.6702 0.0000 -26501.2173 4185.5277 0.0000 0.0000 1744.7277 -20561.4543 148.8240 -22306.1820 -20558.6551 149.5449 -937.3226 -889.7774 57826.5760 -0.3016 -0.6916
ENERGY: 115000 3.5388 3.5241 4.2203 0.0000 -26795.8946 4464.3942 0.0000 0.0000 1743.7732 -20576.4440 148.7425 -22320.2172 -20572.6580 149.2248 349.3493 387.4329 57207.9627 -2.6033 -2.4877
ENERGY: 120000 4.2641 2.6812 1.8150 0.0000 -26702.2212 4364.3717 0.0000 0.0000 1812.5970 -20516.4922 154.6132 -22329.0892 -20512.0230 151.1465 -144.3567 -78.5142 57572.6130 2.7282 3.3132
ENERGY: 125000 3.8754 5.2323 3.5253 0.0000 -26707.3697 4340.3434 0.0000 0.0000 1782.0669 -20572.3265 152.0090 -22354.3934 -20568.1302 150.2531 -383.7499 -304.0693 57893.5100 7.1655 6.6884
TCL: Running 50000 steps at 180 kelvin.
TCL: Setting parameter langevinTemp to 180
TCL: Running for 50000 steps
ETITLE: TS BOND ANGLE DIHED IMPRP ELECT VDW BOUNDARY MISC KINETIC TOTAL TEMP POTENTIAL TOTAL3 TEMPAVG PRESSURE GPRESSURE VOLUME PRESSAVG GPRESSAVG
ENERGY: 125000 3.8754 5.2323 3.5253 0.0000 -26707.3697 4340.3434 0.0000 0.0000 1781.1777 -20573.2156 151.9331 -22354.3934 -20569.6699 151.9331 -366.2100 -304.2264 57893.5100 -366.2100 -304.2264
ENERGY: 135000 2.5522 2.0863 5.6415 0.0000 -26019.5298 4234.4757 0.0000 0.0000 2088.7154 -19686.0587 178.1658 -21774.7741 -19682.9998 180.9487 371.0102 427.9646 57663.6074 0.0625 0.3402
ENERGY: 145000 4.6979 3.0159 2.7048 0.0000 -25938.9801 4163.7185 0.0000 0.0000 2174.8336 -19590.0094 185.5117 -21764.8430 -19584.2666 180.7232 -21.2247 37.7235 58053.8830 0.6333 0.8283
ENERGY: 155000 5.0013 2.8341 4.4983 0.0000 -26028.4993 4183.4996 0.0000 0.0000 2136.2275 -19696.4383 182.2186 -21832.6659 -19690.4820 180.9936 6.9986 65.4852 57567.1378 0.3244 0.6168
ENERGY: 165000 2.8824 2.3078 4.2080 0.0000 -26006.2376 4128.9044 0.0000 0.0000 2121.3740 -19746.5609 180.9516 -21867.9349 -19740.5291 180.2605 -428.9626 -357.2582 58026.4377 0.3635 -0.4307
ENERGY: 175000 2.3579 3.0458 4.6442 0.0000 -26256.7126 4301.6344 0.0000 0.0000 2146.2381 -19798.7921 183.0725 -21945.0302 -19794.4489 180.2023 226.4552 278.4796 57912.5601 3.5693 3.8144
TCL: Running 50000 steps at 210 kelvin.
TCL: Setting parameter langevinTemp to 210
TCL: Running for 50000 steps
ETITLE: TS BOND ANGLE DIHED IMPRP ELECT VDW BOUNDARY MISC KINETIC TOTAL TEMP POTENTIAL TOTAL3 TEMPAVG PRESSURE GPRESSURE VOLUME PRESSAVG GPRESSAVG
ENERGY: 175000 2.3579 3.0458 4.6442 0.0000 -26256.7126 4301.6344 0.0000 0.0000 2145.1486 -19799.8816 182.9796 -21945.0302 -19796.0710 182.9796 212.2983 278.0683 57912.5601 212.2983 278.0683
ENERGY: 185000 5.7232 4.9441 6.4522 0.0000 -24904.8883 3844.3297 0.0000 0.0000 2464.2340 -18579.2052 210.1973 -21043.4392 -18574.5602 211.0461 5.6446 120.0443 57798.9696 6.0720 5.9164
ENERGY: 195000 4.4042 2.9729 2.2737 0.0000 -24761.7985 3773.4770 0.0000 0.0000 2476.4242 -18502.2465 211.2371 -20978.6707 -18496.3677 211.2004 -250.5903 -130.1754 57964.2431 1.2945 1.6055
ENERGY: 205000 3.3535 3.7761 2.4636 0.0000 -24631.0851 3712.3335 0.0000 0.0000 2449.2008 -18459.9576 208.9150 -20909.1584 -18456.4741 209.6582 -213.6448 -145.9658 57567.6340 3.7030 3.4212
ENERGY: 215000 8.7734 5.1841 1.7229 0.0000 -24686.5692 3681.4307 0.0000 0.0000 2513.0251 -18476.4330 214.3591 -20989.4581 -18472.0641 211.1234 -479.4417 -458.5015 57875.7496 3.5852 3.4443
ENERGY: 225000 5.9199 3.0194 3.3990 0.0000 -24808.2704 3781.0001 0.0000 0.0000 2488.4038 -18526.5282 212.2590 -21014.9320 -18520.8474 210.0974 -187.0957 -81.6062 57856.9757 4.0067 4.3011
TCL: Running 50000 steps at 240 kelvin.
TCL: Setting parameter langevinTemp to 240
TCL: Running for 50000 steps
ETITLE: TS BOND ANGLE DIHED IMPRP ELECT VDW BOUNDARY MISC KINETIC TOTAL TEMP POTENTIAL TOTAL3 TEMPAVG PRESSURE GPRESSURE VOLUME PRESSAVG GPRESSAVG
ENERGY: 225000 5.9199 3.0194 3.3990 0.0000 -24808.2704 3781.0001 0.0000 0.0000 2487.1758 -18527.7561 212.1542 -21014.9320 -18523.7106 212.1542 -157.0766 -80.7844 57856.9757 -157.0766 -80.7844
ENERGY: 235000 5.1565 4.4737 4.5693 0.0000 -23588.6069 3416.5276 0.0000 0.0000 2842.8147 -17315.0652 242.4899 -20157.8798 -17309.6948 239.4560 -75.6060 -15.2721 58376.2834 0.9885 1.0928
ENERGY: 245000 2.7286 5.7141 4.3956 0.0000 -23601.0126 3464.2721 0.0000 0.0000 2829.8720 -17294.0302 241.3859 -20123.9022 -17288.3350 241.8251 235.2626 317.3623 57920.2555 4.0832 4.6054
ENERGY: 255000 5.3533 3.8306 4.6343 0.0000 -23468.0080 3403.4926 0.0000 0.0000 2788.2278 -17262.4694 237.8337 -20050.6972 -17258.4469 240.0152 -27.5519 60.8994 58304.4802 4.4865 4.3230
ENERGY: 265000 5.0485 7.0022 6.0002 0.0000 -23597.2503 3479.9984 0.0000 0.0000 2839.4543 -17259.7467 242.2033 -20099.2010 -17254.4340 240.8263 240.8153 326.2308 58259.7145 3.3349 3.3114
ENERGY: 275000 4.3360 3.4213 4.7514 0.0000 -23390.4592 3322.6315 0.0000 0.0000 2828.5729 -17226.7461 241.2751 -20055.3190 -17220.2072 241.2450 -460.6588 -376.3892 58454.7194 5.3915 5.2172
TCL: Running 50000 steps at 270 kelvin.
TCL: Setting parameter langevinTemp to 270
TCL: Running for 50000 steps
ETITLE: TS BOND ANGLE DIHED IMPRP ELECT VDW BOUNDARY MISC KINETIC TOTAL TEMP POTENTIAL TOTAL3 TEMPAVG PRESSURE GPRESSURE VOLUME PRESSAVG GPRESSAVG
ENERGY: 275000 4.3360 3.4213 4.7514 0.0000 -23390.4592 3322.6315 0.0000 0.0000 2827.1564 -17228.1626 241.1543 -20055.3190 -17222.8023 241.1543 -460.0850 -375.5029 58454.7194 -460.0850 -375.5029
ENERGY: 285000 3.7246 2.4150 4.5854 0.0000 -22295.3586 3093.8490 0.0000 0.0000 3143.4983 -16047.2863 268.1380 -19190.7846 -16042.6821 268.0186 -91.6790 -34.1572 59330.2912 4.5656 4.7260
ENERGY: 295000 4.3205 4.3923 5.1402 0.0000 -22503.5398 3143.6602 0.0000 0.0000 3145.1915 -16200.8350 268.2825 -19346.0265 -16194.3029 267.8260 -112.9401 -98.7540 59492.4205 3.0889 3.6850
ENERGY: 305000 10.8451 6.5514 6.8272 0.0000 -22534.9123 3102.5903 0.0000 0.0000 3213.3800 -16194.7183 274.0989 -19408.0983 -16191.3818 270.3209 -161.7700 -87.9846 58543.9834 -1.4214 -1.7144
ENERGY: 315000 6.0118 4.3571 4.4711 0.0000 -22362.0664 3074.6021 0.0000 0.0000 3164.0126 -16108.6117 269.8879 -19272.6243 -16102.0153 272.0850 -316.0690 -244.9808 59669.9211 4.1945 4.1516
ENERGY: 325000 7.5242 6.0592 4.3958 0.0000 -22463.2361 3158.1929 0.0000 0.0000 3164.9984 -16122.0655 269.9720 -19287.0639 -16118.0022 271.1896 171.8974 268.5768 59016.4436 0.0526 0.4944
TCL: Running 1000000 steps at 300 kelvin.
TCL: Setting parameter langevinTemp to 300
TCL: Running for 1000000 steps
ETITLE: TS BOND ANGLE DIHED IMPRP ELECT VDW BOUNDARY MISC KINETIC TOTAL TEMP POTENTIAL TOTAL3 TEMPAVG PRESSURE GPRESSURE VOLUME PRESSAVG GPRESSAVG
ENERGY: 325000 7.5242 6.0592 4.3958 0.0000 -22463.2361 3158.1929 0.0000 0.0000 3163.4284 -16123.6355 269.8381 -19287.0639 -16119.4427 269.8381 189.4801 268.2639 59016.4436 189.4801 268.2639
ENERGY: 525000 3.1669 6.8583 8.6354 0.0000 -21353.3485 2874.7837 0.0000 0.0000 3512.0276 -14947.8765 299.5733 -18459.9041 -14944.2672 299.9056 111.9661 145.4886 60876.9424 -0.0558 -0.2634
ENERGY: 725000 6.3125 3.8760 7.1350 0.0000 -21266.2219 2789.2667 0.0000 0.0000 3660.3479 -14799.2838 312.2249 -18459.6317 -14792.1419 301.6570 -352.1858 -266.4866 61009.9920 4.6663 4.8539
ENERGY: 925000 6.3995 7.8483 7.0446 0.0000 -21375.6053 2943.9071 0.0000 0.0000 3494.5859 -14915.8201 298.0855 -18410.4059 -14906.5822 301.9707 296.1328 379.3202 60719.9203 7.0535 6.8611
ENERGY: 1125000 5.0363 4.9331 4.8318 0.0000 -21305.5711 2832.9952 0.0000 0.0000 3540.7431 -14917.0316 302.0227 -18457.7748 -14911.5950 298.7074 -51.1488 -12.5029 60911.5685 6.2185 5.6032
ENERGY: 1325000 5.1731 5.6778 5.0292 0.0000 -21491.7247 2961.9422 0.0000 0.0000 3503.3527 -15010.5498 298.8333 -18513.9025 -15004.1231 299.7437 495.9416 534.1553 60426.6715 2.3167 2.1441
TCL: Exiting due to exit command.
