Info: SIMULATION PARAMETERS:
Info: TIMESTEP               2
Info: NUMBER OF STEPS        0
Info: STEPS PER CYCLE        10
Info: PERIODIC CELL BASIS 1  45.556 0 0
Info: PERIODIC CELL BASIS 2  0 45.083 0
Info: PERIODIC CELL BASIS 3  0 0 40.862
Info: PERIODIC CELL CENTER   0 0 0
Info: WRAPPING WATERS AROUND PERIODIC BOUNDARIES ON OUTPUT.
Info: WRAPPING ALL CLUSTERS AROUND PERIODIC BOUNDARIES ON OUTPUT.
Info: FIRST LDB TIMESTEP     50
Info: LAST LDB TIMESTEP     -1
Info: HOM BACKGROUND SCALING 1
Info: PME BACKGROUND SCALING 1
Info: MIN ATOMS PER PATCH    40
Info: EMPTY PATCH LOAD       40 ATOMS
Info: INITIAL TEMPERATURE    300
Info: CENTER OF MASS MOVING INITIALLY? NO
Info: DIELECTRIC             1
Info: EXCLUDE                SCALED ONE-FOUR
Info: 1-4 ELECTROSTATICS SCALED BY 0.833333
Info: MODIFIED 1-4 VDW PARAMETERS WILL BE USED
Info: DCD FILENAME           mobley_5282042_min.dcd
Info: DCD FREQUENCY          5000
Info: DCD FIRST STEP         5000
Info: DCD FILE WILL CONTAIN UNIT CELL DATA
Info: XST FILENAME           mobley_5282042_min.xst
Info: XST FREQUENCY          5000
Info: NO VELOCITY DCD OUTPUT
Info: NO FORCE DCD OUTPUT
Info: OUTPUT FILENAME        mobley_5282042_min
Info: BINARY OUTPUT FILES WILL BE USED
Info: RESTART FILENAME       mobley_5282042_min.restart
Info: RESTART FREQUENCY      5000
Info: BINARY RESTART FILES WILL BE USED
Info: CUTOFF                 9
Info: PAIRLIST DISTANCE      11
Info: PAIRLIST SHRINK RATE   0.01
Info: PAIRLIST GROW RATE     0.01
Info: PAIRLIST TRIGGER       0.3
Info: PAIRLISTS PER CYCLE    2
Info: PAIRLISTS ENABLED
Info: MARGIN                 8
Info: HYDROGEN GROUP CUTOFF  2.5
Info: PATCH DIMENSION        21.5
Info: ENERGY OUTPUT STEPS    5000
Info: ENERGY EVALUATION STEPS    5000
Info: OUTPUT ENERGY PRECISION 4
Info: CROSSTERM ENERGY INCLUDED IN DIHEDRAL
Info: TIMING OUTPUT STEPS    50000
Info: PRESSURE OUTPUT STEPS  5000
Info: LANGEVIN DYNAMICS ACTIVE
Info: LANGEVIN TEMPERATURE   300
Info: LANGEVIN USING BBK INTEGRATOR
Info: LANGEVIN DAMPING COEFFICIENT IS 1 INVERSE PS
Info: LANGEVIN DYNAMICS APPLIED TO HYDROGENS
Info: LANGEVIN PISTON PRESSURE CONTROL ACTIVE
Info:        TARGET PRESSURE IS 1.01325 BAR
Info:     OSCILLATION PERIOD IS 50 FS
Info:             DECAY TIME IS 25 FS
Info:     PISTON TEMPERATURE IS 300 K
Info:       PRESSURE CONTROL IS GROUP-BASED
Info:    INITIAL STRAIN RATE IS 0 0 0
Info:       CELL FLUCTUATION IS ISOTROPIC
Info: PARTICLE MESH EWALD (PME) ACTIVE
Info: PME TOLERANCE               1e-06
Info: PME EWALD COEFFICIENT       0.348832
Info: PME INTERPOLATION ORDER     4
Info: PME GRID DIMENSIONS         48 48 44
Info: PME MAXIMUM GRID SPACING    1
Info: FULL ELECTROSTATIC EVALUATION FREQUENCY      2
Info: USING VERLET I (r-RESPA) MTS SCHEME.
Info: C1 SPLITTING OF LONG RANGE ELECTROSTATICS
Info: PLACING ATOMS IN PATCHES BY HYDROGEN GROUPS
Info: RIGID BONDS TO HYDROGEN : ALL
Info:         ERROR TOLERANCE : 1e-08
Info:          MAX ITERATIONS : 100
Info: RIGID WATER USING SETTLE ALGORITHM
Info: RANDOM NUMBER SEED     1741356069
Info: USE HYDROGEN BONDS?    NO
Info: Using AMBER format force field!
Info: AMBER PARM FILE        mobley_5282042.prmtop
Info: COORDINATE PDB         mobley_5282042.pdb
Info: Exclusions will be read from PARM file!
Info: SCNB (VDW SCALING)     2
Info: USING ARITHMETIC MEAN TO COMBINE L-J SIGMA PARAMETERS
Info: SUMMARY OF PARAMETERS:
Info: 13 BONDS
Info: 20 ANGLES
Info:   20 HARMONIC
Info:   0 COSINE-BASED
Info: 13 DIHEDRAL
Info: 0 IMPROPER
Info: 0 CROSSTERM
Info: 0 VDW
Info: 36 VDW_PAIRS
Info: 0 NBTHOLE_PAIRS
Info: STRUCTURE SUMMARY:
Info: 6107 ATOMS
Info: 6109 BONDS
Info: 81 ANGLES
Info: 124 DIHEDRALS
Info: 0 IMPROPERS
Info: 0 CROSSTERMS
Info: 6298 EXCLUSIONS
Info: 6086 RIGID BONDS
Info: 12235 DEGREES OF FREEDOM
Info: 2042 HYDROGEN GROUPS
Info: 4 ATOMS IN LARGEST HYDROGEN GROUP
Info: 2042 MIGRATION GROUPS
Info: 4 ATOMS IN LARGEST MIGRATION GROUP
Info: TOTAL MASS = 36687.7 amu
Info: TOTAL CHARGE = -0.000199977 e
Info: MASS DENSITY = 0.725942 g/cm^3
Info: ATOM DENSITY = 0.0727696 atoms/A^3
Info: ADDED 0 IMPLICIT EXCLUSIONS
Info: NONBONDED TABLE R-SQUARED SPACING: 0.0625
Info: NONBONDED TABLE SIZE: 705 POINTS
Info: REMOVING COM VELOCITY 0.027835 0.0292206 -0.0528806
TCL: Minimizing for 2000 steps
ETITLE: TS BOND ANGLE DIHED IMPRP ELECT VDW BOUNDARY MISC KINETIC TOTAL TEMP POTENTIAL TOTAL3 TEMPAVG PRESSURE GPRESSURE VOLUME PRESSAVG GPRESSAVG
ENERGY: 0 0.5734 6.0795 9.4383 0.0000 -18927.8304 2149.1480 0.0000 0.0000 0.0000 -16762.5912 0.0000 -16762.5912 -16762.5912 0.0000 11310.9058 -15831.0405 83922.4225 11310.9058 -15831.0405
ENERGY: 400 27.3175 28.5563 13.0304 0.0000 -25332.1542 3630.2353 0.0000 0.0000 0.0000 -21633.0147 0.0000 -21633.0147 -21633.0147 0.0000 15602.9973 15694.9111 83922.4225 15602.9973 15694.9111
ENERGY: 800 1.6256 4.4004 9.4805 0.0000 -26790.2144 4400.2066 0.0000 0.0000 0.0000 -22374.5014 0.0000 -22374.5014 -22374.5014 0.0000 18446.3787 18565.2991 83922.4225 18446.3787 18565.2991
ENERGY: 1200 1.5173 3.7565 9.2557 0.0000 -27251.2355 4559.8570 0.0000 0.0000 0.0000 -22676.8491 0.0000 -22676.8491 -22676.8491 0.0000 19072.5606 19185.8512 83922.4225 19072.5606 19185.8512
ENERGY: 1600 1.3248 3.3916 9.2196 0.0000 -27574.6325 4685.8294 0.0000 0.0000 0.0000 -22874.8671 0.0000 -22874.8671 -22874.8671 0.0000 19601.7753 19671.6493 83922.4225 19601.7753 19671.6493
ENERGY: 2000 1.1862 3.4434 9.4162 0.0000 -27778.1768 4784.8117 0.0000 0.0000 0.0000 -22979.3193 0.0000 -22979.3193 -22979.3193 0.0000 20023.0930 20088.8612 83922.4225 20023.0930 20088.8612
TCL: Exiting due to exit command.
Info: NAMD 3.0.1 for Linux-x86_64-multicore
Info: Please visit http://www.ks.uiuc.edu/Research/namd/
Info: for updates, documentation, and support information.
Info: Please cite Phillips et al., J. Chem. Phys. 153:044130 (2020) doi:10.1063/5.0014475
Info: in all publications reporting results obtained with NAMD.
Info: Based on Charm++/Converse 80000 for multicore-linux-x86_64-gcc
Info: Built Mon Oct 14 11:11:06 CDT 2024 by dhardy on athine.ks.uiuc.edu
Info: 1 NAMD  3.0.1  Linux-x86_64-multicore  16    k121  z5358697
Info: Running on 16 processors, 1 nodes, 1 physical nodes.
Info: CPU topology information available.
Info: Charm++/Converse parallel runtime startup completed at 0.00539489 s
Info: 1043.48 MB of memory in use based on /proc/self/stat
Info: Configuration file is mobley_5282042_equil.namd
Info: Working in the current directory /srv/scratch/z5358697/prod_prep_6/5282042
TCL: Running 25000 steps at 30 kelvin.
TCL: Suspending until startup complete.
Info: SIMULATION PARAMETERS:
Info: TIMESTEP               2
Info: NUMBER OF STEPS        0
Info: STEPS PER CYCLE        10
Info: PERIODIC CELL BASIS 1  45.556 0 0
Info: PERIODIC CELL BASIS 2  0 45.083 0
Info: PERIODIC CELL BASIS 3  0 0 40.862
Info: PERIODIC CELL CENTER   0 0 0
Info: WRAPPING WATERS AROUND PERIODIC BOUNDARIES ON OUTPUT.
Info: WRAPPING ALL CLUSTERS AROUND PERIODIC BOUNDARIES ON OUTPUT.
Info: FIRST LDB TIMESTEP     50
Info: LAST LDB TIMESTEP     -1
Info: HOM BACKGROUND SCALING 1
Info: PME BACKGROUND SCALING 1
Info: MIN ATOMS PER PATCH    40
Info: EMPTY PATCH LOAD       40 ATOMS
Info: INITIAL TEMPERATURE    300
Info: CENTER OF MASS MOVING INITIALLY? NO
Info: DIELECTRIC             1
Info: EXCLUDE                SCALED ONE-FOUR
Info: 1-4 ELECTROSTATICS SCALED BY 0.833333
Info: MODIFIED 1-4 VDW PARAMETERS WILL BE USED
Info: DCD FILENAME           mobley_5282042_equil.dcd
Info: DCD FREQUENCY          5000
Info: DCD FIRST STEP         5000
Info: DCD FILE WILL CONTAIN UNIT CELL DATA
Info: XST FILENAME           mobley_5282042_equil.xst
Info: XST FREQUENCY          5000
Info: NO VELOCITY DCD OUTPUT
Info: NO FORCE DCD OUTPUT
Info: OUTPUT FILENAME        mobley_5282042_equil
Info: BINARY OUTPUT FILES WILL BE USED
Info: RESTART FILENAME       mobley_5282042_equil.restart
Info: RESTART FREQUENCY      5000
Info: BINARY RESTART FILES WILL BE USED
Info: CUTOFF                 9
Info: PAIRLIST DISTANCE      11
Info: PAIRLIST SHRINK RATE   0.01
Info: PAIRLIST GROW RATE     0.01
Info: PAIRLIST TRIGGER       0.3
Info: PAIRLISTS PER CYCLE    2
Info: PAIRLISTS ENABLED
Info: MARGIN                 8
Info: HYDROGEN GROUP CUTOFF  2.5
Info: PATCH DIMENSION        21.5
Info: ENERGY OUTPUT STEPS    5000
Info: ENERGY EVALUATION STEPS    5000
Info: OUTPUT ENERGY PRECISION 4
Info: CROSSTERM ENERGY INCLUDED IN DIHEDRAL
Info: TIMING OUTPUT STEPS    50000
Info: PRESSURE OUTPUT STEPS  5000
Info: LANGEVIN DYNAMICS ACTIVE
Info: LANGEVIN TEMPERATURE   30
Info: LANGEVIN USING BBK INTEGRATOR
Info: LANGEVIN DAMPING COEFFICIENT IS 1 INVERSE PS
Info: LANGEVIN DYNAMICS APPLIED TO HYDROGENS
Info: LANGEVIN PISTON PRESSURE CONTROL ACTIVE
Info:        TARGET PRESSURE IS 1.01325 BAR
Info:     OSCILLATION PERIOD IS 50 FS
Info:             DECAY TIME IS 25 FS
Info:     PISTON TEMPERATURE IS 300 K
Info:       PRESSURE CONTROL IS GROUP-BASED
Info:    INITIAL STRAIN RATE IS 0 0 0
Info:       CELL FLUCTUATION IS ISOTROPIC
Info: PARTICLE MESH EWALD (PME) ACTIVE
Info: PME TOLERANCE               1e-06
Info: PME EWALD COEFFICIENT       0.348832
Info: PME INTERPOLATION ORDER     4
Info: PME GRID DIMENSIONS         48 48 44
Info: PME MAXIMUM GRID SPACING    1
Info: FULL ELECTROSTATIC EVALUATION FREQUENCY      2
Info: USING VERLET I (r-RESPA) MTS SCHEME.
Info: C1 SPLITTING OF LONG RANGE ELECTROSTATICS
Info: PLACING ATOMS IN PATCHES BY HYDROGEN GROUPS
Info: RIGID BONDS TO HYDROGEN : ALL
Info:         ERROR TOLERANCE : 1e-08
Info:          MAX ITERATIONS : 100
Info: RIGID WATER USING SETTLE ALGORITHM
Info: RANDOM NUMBER SEED     1741356089
Info: USE HYDROGEN BONDS?    NO
Info: Using AMBER format force field!
Info: AMBER PARM FILE        mobley_5282042.prmtop
Info: COORDINATE PDB         mobley_5282042.pdb
Info: Exclusions will be read from PARM file!
Info: SCNB (VDW SCALING)     2
Info: USING ARITHMETIC MEAN TO COMBINE L-J SIGMA PARAMETERS
Info: BINARY COORDINATES     mobley_5282042_min.coor
Info: SUMMARY OF PARAMETERS:
Info: 13 BONDS
Info: 20 ANGLES
Info:   20 HARMONIC
Info:   0 COSINE-BASED
Info: 13 DIHEDRAL
Info: 0 IMPROPER
Info: 0 CROSSTERM
Info: 0 VDW
Info: 36 VDW_PAIRS
Info: 0 NBTHOLE_PAIRS
Info: STRUCTURE SUMMARY:
Info: 6107 ATOMS
Info: 6109 BONDS
Info: 81 ANGLES
Info: 124 DIHEDRALS
Info: 0 IMPROPERS
Info: 0 CROSSTERMS
Info: 6298 EXCLUSIONS
Info: 6086 RIGID BONDS
Info: 12235 DEGREES OF FREEDOM
Info: 2042 HYDROGEN GROUPS
Info: 4 ATOMS IN LARGEST HYDROGEN GROUP
Info: 2042 MIGRATION GROUPS
Info: 4 ATOMS IN LARGEST MIGRATION GROUP
Info: TOTAL MASS = 36687.7 amu
Info: TOTAL CHARGE = -0.000199977 e
Info: MASS DENSITY = 0.725942 g/cm^3
Info: ATOM DENSITY = 0.0727696 atoms/A^3
Info: ADDED 0 IMPLICIT EXCLUSIONS
Info: NONBONDED TABLE R-SQUARED SPACING: 0.0625
Info: NONBONDED TABLE SIZE: 705 POINTS
Info: REMOVING COM VELOCITY -0.0359819 0.0875233 -0.0231431
TCL: Running for 25000 steps
ETITLE: TS BOND ANGLE DIHED IMPRP ELECT VDW BOUNDARY MISC KINETIC TOTAL TEMP POTENTIAL TOTAL3 TEMPAVG PRESSURE GPRESSURE VOLUME PRESSAVG GPRESSAVG
ENERGY: 0 1.1862 3.4434 9.4162 0.0000 -27778.1767 4784.8117 0.0000 0.0000 3649.1835 -19330.1358 300.1802 -22979.3193 -19329.3622 300.1802 230.7737 264.1129 83922.4225 230.7737 264.1129
ENERGY: 5000 1.9804 5.1543 10.9133 0.0000 -29052.9751 4886.5299 0.0000 0.0000 373.7478 -23774.6494 30.7443 -24148.3971 -23773.8568 47.9939 -599.9729 -553.7565 58751.0394 -1.7749 -1.6514
ENERGY: 10000 1.1095 4.6728 12.4384 0.0000 -29328.5420 5103.8145 0.0000 0.0000 364.8035 -23841.7033 30.0086 -24206.5069 -23840.5174 30.3441 291.2766 351.6767 58051.1227 5.4865 5.1733
ENERGY: 15000 2.1472 4.3387 12.0452 0.0000 -29186.6971 4943.6818 0.0000 0.0000 375.2340 -23849.2502 30.8666 -24224.4842 -23848.2322 30.2672 -470.5681 -420.0710 58373.7864 3.1302 3.0870
ENERGY: 20000 2.4279 5.4382 11.8171 0.0000 -29330.9178 5074.8737 0.0000 0.0000 368.2700 -23868.0908 30.2937 -24236.3608 -23867.1373 30.1129 6.6397 52.9942 58250.9554 -2.5212 -2.4809
ENERGY: 25000 2.0832 4.3107 10.5172 0.0000 -29400.3775 5142.0065 0.0000 0.0000 362.1334 -23879.3266 29.7889 -24241.4600 -23878.4466 29.8909 384.5433 431.9889 57987.8183 -2.5017 -2.5092
TCL: Running 25000 steps at 60 kelvin.
TCL: Setting parameter langevinTemp to 60
TCL: Running for 25000 steps
ETITLE: TS BOND ANGLE DIHED IMPRP ELECT VDW BOUNDARY MISC KINETIC TOTAL TEMP POTENTIAL TOTAL3 TEMPAVG PRESSURE GPRESSURE VOLUME PRESSAVG GPRESSAVG
ENERGY: 25000 2.0832 4.3107 10.5172 0.0000 -29400.3775 5142.0065 0.0000 0.0000 361.9520 -23879.5080 29.7740 -24241.4600 -23878.6651 29.7740 372.5813 431.9870 57987.8183 372.5813 431.9870
ENERGY: 30000 2.1370 5.9825 12.0294 0.0000 -28787.9519 4883.6398 0.0000 0.0000 724.3244 -23159.8390 59.5826 -23884.1633 -23157.9827 57.5985 -34.3717 42.1685 58547.0692 1.6554 1.6304
ENERGY: 35000 2.0071 6.5239 11.5310 0.0000 -28805.5122 4809.9459 0.0000 0.0000 727.1241 -23248.3802 59.8129 -23975.5043 -23246.6456 60.0277 -572.4754 -492.2100 58653.6400 3.3151 3.2853
ENERGY: 40000 2.4988 5.5871 10.9099 0.0000 -28866.9792 4829.6157 0.0000 0.0000 725.0619 -23293.3057 59.6433 -24018.3676 -23291.5217 60.2614 -499.0419 -449.0887 58528.7968 3.4488 3.5085
ENERGY: 45000 3.8158 5.7629 11.3967 0.0000 -28710.6197 4668.6202 0.0000 0.0000 735.4113 -23285.6129 60.4946 -24021.0242 -23283.5806 60.1413 -1248.8361 -1182.9236 58752.3902 4.7689 4.9514
ENERGY: 50000 3.5407 5.9523 11.0293 0.0000 -28963.2480 4905.7080 0.0000 0.0000 737.6503 -23299.3673 60.6788 -24037.0177 -23297.7404 60.4650 -251.7762 -185.2815 58402.2994 0.0428 0.0927
TCL: Running 25000 steps at 90 kelvin.
TCL: Setting parameter langevinTemp to 90
TCL: Running for 25000 steps
ETITLE: TS BOND ANGLE DIHED IMPRP ELECT VDW BOUNDARY MISC KINETIC TOTAL TEMP POTENTIAL TOTAL3 TEMPAVG PRESSURE GPRESSURE VOLUME PRESSAVG GPRESSAVG
ENERGY: 50000 3.5407 5.9523 11.0293 0.0000 -28963.2480 4905.7080 0.0000 0.0000 737.2872 -23299.7304 60.6489 -24037.0177 -23298.0895 60.6489 -261.2850 -185.5567 58402.2994 -261.2850 -185.5567
ENERGY: 55000 3.5900 6.2525 11.1649 0.0000 -28334.9206 4652.7604 0.0000 0.0000 1108.1703 -22552.9825 91.1576 -23661.1528 -22551.2791 87.3063 -615.5991 -554.5391 58758.6195 -1.5593 -1.6362
ENERGY: 60000 4.8130 7.8618 11.7776 0.0000 -28572.9286 4838.5654 0.0000 0.0000 1086.5511 -22623.3597 89.3792 -23709.9108 -22620.8325 90.7960 112.3052 152.5567 58382.5032 1.0173 1.0760
ENERGY: 65000 2.2642 8.2862 12.6578 0.0000 -28682.6341 4906.4182 0.0000 0.0000 1075.5031 -22677.5048 88.4704 -23753.0079 -22675.3692 90.1342 475.6600 537.5932 58395.1515 0.1233 0.2375
ENERGY: 70000 3.9443 8.2724 11.3497 0.0000 -28597.7730 4822.5181 0.0000 0.0000 1108.4150 -22643.2735 91.1777 -23751.6885 -22639.8838 90.0471 -91.3258 -27.3087 58539.3974 4.3716 4.5136
ENERGY: 75000 3.8903 9.5937 11.3315 0.0000 -28462.6204 4657.5777 0.0000 0.0000 1076.5779 -22703.6492 88.5588 -23780.2271 -22701.5709 90.6574 -824.6226 -757.2491 58875.3608 1.9850 2.2898
TCL: Running 25000 steps at 120 kelvin.
TCL: Setting parameter langevinTemp to 120
TCL: Running for 25000 steps
ETITLE: TS BOND ANGLE DIHED IMPRP ELECT VDW BOUNDARY MISC KINETIC TOTAL TEMP POTENTIAL TOTAL3 TEMPAVG PRESSURE GPRESSURE VOLUME PRESSAVG GPRESSAVG
ENERGY: 75000 3.8903 9.5937 11.3315 0.0000 -28462.6204 4657.5777 0.0000 0.0000 1076.0396 -22704.1875 88.5145 -23780.2271 -22701.5084 88.5145 -817.7234 -758.0676 58875.3608 -817.7234 -758.0676
ENERGY: 80000 3.4392 9.6665 12.0939 0.0000 -28182.2729 4751.8069 0.0000 0.0000 1476.7403 -21928.5261 121.4760 -23405.2664 -21925.4276 117.3048 315.0670 351.8176 58947.4738 -1.4689 -1.2490
ENERGY: 85000 3.4910 9.3557 12.8144 0.0000 -28216.3575 4791.4270 0.0000 0.0000 1477.9883 -21921.2811 121.5787 -23399.2694 -21917.1478 119.9026 476.8588 535.4954 58965.4952 3.2273 2.6116
ENERGY: 90000 4.9563 11.2175 11.5291 0.0000 -28111.3500 4619.2720 0.0000 0.0000 1451.1023 -22013.2727 119.3670 -23464.3751 -22008.6829 120.0197 -521.1791 -450.5939 59510.4505 0.5341 0.4593
ENERGY: 95000 3.2912 9.3811 15.0086 0.0000 -28170.3528 4676.9208 0.0000 0.0000 1449.3210 -22016.4302 119.2205 -23465.7512 -22012.6666 119.7300 -186.1253 -128.6516 59095.8366 1.9224 1.8247
ENERGY: 100000 4.0835 7.8391 14.6765 0.0000 -28184.7634 4669.7718 0.0000 0.0000 1455.5948 -22032.7977 119.7366 -23488.3926 -22029.9846 120.1808 -253.1842 -187.3149 59017.9048 4.9528 4.9581
TCL: Running 25000 steps at 150 kelvin.
TCL: Setting parameter langevinTemp to 150
TCL: Running for 25000 steps
ETITLE: TS BOND ANGLE DIHED IMPRP ELECT VDW BOUNDARY MISC KINETIC TOTAL TEMP POTENTIAL TOTAL3 TEMPAVG PRESSURE GPRESSURE VOLUME PRESSAVG GPRESSAVG
ENERGY: 100000 4.0835 7.8391 14.6765 0.0000 -28184.7634 4669.7718 0.0000 0.0000 1454.8851 -22033.5074 119.6782 -23488.3926 -22030.3267 119.6782 -253.6495 -188.1344 59017.9048 -253.6495 -188.1344
ENERGY: 105000 6.3178 11.8093 13.8113 0.0000 -27589.4447 4522.8996 0.0000 0.0000 1853.4013 -21181.2053 152.4600 -23034.6066 -21177.2310 146.7413 -97.6560 -36.1871 59640.1709 1.5789 1.4265
ENERGY: 110000 5.2792 15.0366 14.7903 0.0000 -27758.7157 4607.9725 0.0000 0.0000 1852.9835 -21262.6535 152.4256 -23115.6371 -21258.6652 150.4679 82.3143 142.2690 59524.1608 -2.8374 -2.6033
ENERGY: 115000 5.1266 12.8540 12.3152 0.0000 -27809.9261 4672.5940 0.0000 0.0000 1847.6940 -21259.3421 151.9905 -23107.0362 -21255.9469 150.2777 407.2303 464.8719 59497.5273 5.5497 5.6646
ENERGY: 120000 3.3861 11.0864 13.0400 0.0000 -27653.1468 4500.6664 0.0000 0.0000 1838.1906 -21286.7774 151.2088 -23124.9680 -21282.9600 150.2260 -348.2199 -326.0760 59654.6746 2.5295 1.7611
ENERGY: 125000 6.6564 10.5937 15.3266 0.0000 -27995.7404 4803.8538 0.0000 0.0000 1821.7950 -21337.5149 149.8601 -23159.3098 -21333.8530 150.5235 887.2524 958.4441 59142.1956 2.1221 2.0180
TCL: Running 50000 steps at 180 kelvin.
TCL: Setting parameter langevinTemp to 180
TCL: Running for 50000 steps
ETITLE: TS BOND ANGLE DIHED IMPRP ELECT VDW BOUNDARY MISC KINETIC TOTAL TEMP POTENTIAL TOTAL3 TEMPAVG PRESSURE GPRESSURE VOLUME PRESSAVG GPRESSAVG
ENERGY: 125000 6.6564 10.5937 15.3266 0.0000 -27995.7404 4803.8538 0.0000 0.0000 1820.8789 -21338.4309 149.7847 -23159.3098 -21334.7894 149.7847 900.8741 958.4639 59142.1956 900.8741 958.4639
ENERGY: 135000 4.6935 11.0372 14.0526 0.0000 -27027.0066 4446.9380 0.0000 0.0000 2202.9179 -20347.3673 181.2111 -22550.2852 -20343.8100 180.3259 574.2438 641.7029 59585.1941 2.9398 3.0601
ENERGY: 145000 3.9341 14.8697 15.2459 0.0000 -26903.0871 4293.2367 0.0000 0.0000 2147.0807 -20428.7201 176.6179 -22575.8008 -20425.0511 180.3977 -195.6085 -172.0222 59973.8034 2.8409 2.6597
ENERGY: 155000 5.5304 8.7050 12.2170 0.0000 -26948.5939 4400.4215 0.0000 0.0000 2226.5047 -20295.2154 183.1513 -22521.7201 -20290.3060 180.8055 358.8671 401.5210 59603.0042 3.8290 3.4439
ENERGY: 165000 5.5951 13.5501 14.8429 0.0000 -26933.3274 4339.8301 0.0000 0.0000 2200.9340 -20358.5753 181.0479 -22559.5093 -20354.8137 180.4049 103.9686 155.0204 59665.1375 3.7449 3.7238
ENERGY: 175000 5.2493 10.5343 14.6145 0.0000 -27181.0560 4429.5854 0.0000 0.0000 2164.1035 -20556.9690 178.0182 -22721.0725 -20551.9401 180.0380 96.8533 118.7436 59634.9325 -3.5603 -3.3176
TCL: Running 50000 steps at 210 kelvin.
TCL: Setting parameter langevinTemp to 210
TCL: Running for 50000 steps
ETITLE: TS BOND ANGLE DIHED IMPRP ELECT VDW BOUNDARY MISC KINETIC TOTAL TEMP POTENTIAL TOTAL3 TEMPAVG PRESSURE GPRESSURE VOLUME PRESSAVG GPRESSAVG
ENERGY: 175000 5.2493 10.5343 14.6145 0.0000 -27181.0560 4429.5854 0.0000 0.0000 2163.0244 -20558.0481 177.9294 -22721.0725 -20554.1320 177.9294 60.9473 118.2700 59634.9325 60.9473 118.2700
ENERGY: 185000 7.7253 10.9696 17.9133 0.0000 -25622.0734 3907.7614 0.0000 0.0000 2509.1530 -19168.5508 206.4018 -21677.7038 -19163.1264 209.3297 -163.8050 -115.8274 59918.1964 -1.7913 -1.4455
ENERGY: 195000 4.7876 12.5045 14.9981 0.0000 -25894.1996 4080.4497 0.0000 0.0000 2575.6734 -19205.7863 211.8738 -21781.4597 -19199.2950 209.1048 561.0447 626.0375 58993.1392 0.9584 0.5792
ENERGY: 205000 5.7656 18.7009 17.4084 0.0000 -25568.0556 3949.7110 0.0000 0.0000 2519.6305 -19056.8391 207.2637 -21576.4696 -19051.8095 211.2464 106.7825 161.0543 59897.0653 4.3771 4.8526
ENERGY: 215000 4.3103 17.3481 17.1023 0.0000 -25463.1768 3784.4687 0.0000 0.0000 2557.0800 -19082.8675 210.3443 -21639.9475 -19074.1138 210.6167 -316.3224 -274.7528 59492.5332 6.1283 5.7880
ENERGY: 225000 5.9472 16.0346 15.7005 0.0000 -25670.4532 3916.9466 0.0000 0.0000 2549.2443 -19166.5799 209.6997 -21715.8242 -19158.9878 209.5241 -43.5137 25.1859 59641.9472 3.5154 3.7728
TCL: Running 50000 steps at 240 kelvin.
TCL: Setting parameter langevinTemp to 240
TCL: Running for 50000 steps
ETITLE: TS BOND ANGLE DIHED IMPRP ELECT VDW BOUNDARY MISC KINETIC TOTAL TEMP POTENTIAL TOTAL3 TEMPAVG PRESSURE GPRESSURE VOLUME PRESSAVG GPRESSAVG
ENERGY: 225000 5.9472 16.0346 15.7005 0.0000 -25670.4532 3916.9466 0.0000 0.0000 2547.9943 -19167.8299 209.5969 -21715.8242 -19163.3728 209.5969 -54.4190 25.8832 59641.9472 -54.4190 25.8832
ENERGY: 235000 5.9983 11.5999 16.0778 0.0000 -24282.5932 3517.7192 0.0000 0.0000 2915.0718 -17816.1262 239.7925 -20731.1980 -17808.4712 240.5350 -18.4871 72.1661 60139.9737 1.5202 1.2602
ENERGY: 245000 7.5241 15.6356 18.2937 0.0000 -24234.8693 3474.0472 0.0000 0.0000 2905.8417 -17813.5270 239.0333 -20719.3687 -17805.3969 240.0254 -288.7944 -191.5564 60255.0478 3.2060 3.1116
ENERGY: 255000 5.7377 13.4721 12.9475 0.0000 -24428.4337 3595.9235 0.0000 0.0000 2867.4698 -17932.8831 235.8768 -20800.3529 -17928.8432 238.9920 236.9621 344.0609 59767.0585 -1.9909 -2.0467
ENERGY: 265000 5.6097 16.2722 14.8623 0.0000 -24297.9775 3490.2154 0.0000 0.0000 2923.6705 -17847.3474 240.4999 -20771.0179 -17836.8990 240.0146 -407.6006 -341.2652 60729.9487 1.4279 1.2387
ENERGY: 275000 6.1242 13.8547 18.1263 0.0000 -24421.0959 3584.9105 0.0000 0.0000 2972.9878 -17825.0924 244.5567 -20798.0802 -17817.7572 239.0988 61.1801 187.3755 60224.8464 -2.4557 -2.7967
TCL: Running 50000 steps at 270 kelvin.
TCL: Setting parameter langevinTemp to 270
TCL: Running for 50000 steps
ETITLE: TS BOND ANGLE DIHED IMPRP ELECT VDW BOUNDARY MISC KINETIC TOTAL TEMP POTENTIAL TOTAL3 TEMPAVG PRESSURE GPRESSURE VOLUME PRESSAVG GPRESSAVG
ENERGY: 275000 6.1242 13.8547 18.1263 0.0000 -24421.0959 3584.9105 0.0000 0.0000 2971.5573 -17826.5230 244.4390 -20798.0802 -17821.0580 244.4390 108.0188 187.0426 60224.8464 108.0188 187.0426
ENERGY: 285000 6.6519 18.2924 14.1606 0.0000 -23145.9326 3157.0534 0.0000 0.0000 3216.7989 -16732.9753 264.6125 -19949.7743 -16725.9286 270.5588 -548.7879 -475.5639 61647.9348 3.3424 2.6407
ENERGY: 295000 7.2188 16.2273 18.2495 0.0000 -23083.5305 3175.8853 0.0000 0.0000 3277.0126 -16588.9369 269.5656 -19865.9496 -16583.1631 270.5766 -401.5022 -286.9414 62037.3954 1.2437 1.3005
ENERGY: 305000 5.8835 14.3866 17.9422 0.0000 -22994.0923 3119.6989 0.0000 0.0000 3342.6986 -16493.4825 274.9689 -19836.1811 -16484.3612 269.4406 -352.7314 -302.6894 61661.0009 4.5232 4.3658
ENERGY: 315000 7.7127 18.5046 15.3165 0.0000 -23146.1842 3260.1344 0.0000 0.0000 3283.1172 -16561.3990 270.0678 -19844.5161 -16554.4427 269.4469 12.6516 112.1237 61588.2313 1.0944 0.7645
ENERGY: 325000 8.4116 16.9098 18.9795 0.0000 -23096.9981 3207.5461 0.0000 0.0000 3371.1890 -16473.9622 277.3125 -19845.1512 -16466.1501 270.3320 -92.4924 14.6625 61357.9088 5.1739 5.4680
TCL: Running 1000000 steps at 300 kelvin.
TCL: Setting parameter langevinTemp to 300
TCL: Running for 1000000 steps
ETITLE: TS BOND ANGLE DIHED IMPRP ELECT VDW BOUNDARY MISC KINETIC TOTAL TEMP POTENTIAL TOTAL3 TEMPAVG PRESSURE GPRESSURE VOLUME PRESSAVG GPRESSAVG
ENERGY: 325000 8.4116 16.9098 18.9795 0.0000 -23096.9981 3207.5461 0.0000 0.0000 3369.5766 -16475.5746 277.1799 -19845.1512 -16470.1714 277.1799 -65.2729 14.3298 61357.9088 -65.2729 14.3298
ENERGY: 525000 6.2651 20.5472 12.1775 0.0000 -22216.1619 3001.1302 0.0000 0.0000 3672.0739 -15503.9680 302.0632 -19176.0419 -15493.2835 298.6635 201.1950 265.0646 61842.8528 -5.5949 -5.8306
ENERGY: 725000 12.6017 18.3583 14.2494 0.0000 -22020.7673 2928.8807 0.0000 0.0000 3603.7796 -15442.8976 296.4453 -19046.6772 -15435.3967 299.0908 -323.7854 -273.9670 63295.9892 3.2547 3.0797
ENERGY: 925000 8.8603 16.8749 16.3231 0.0000 -22279.5107 3056.7106 0.0000 0.0000 3788.4015 -15392.3402 311.6323 -19180.7417 -15382.4261 298.8562 171.0393 285.5956 62897.0099 1.8931 1.4330
ENERGY: 1125000 7.6518 17.8001 18.1977 0.0000 -21996.6194 2933.5391 0.0000 0.0000 3632.9318 -15386.4989 298.8434 -19019.4307 -15378.5116 301.0095 -242.6411 -151.9445 63510.0426 2.7854 2.1805
ENERGY: 1325000 7.4865 13.2205 15.3381 0.0000 -22049.6525 3035.4532 0.0000 0.0000 3645.1166 -15333.0377 299.8457 -18978.1543 -15324.4994 301.4382 280.0360 398.6303 63174.7619 3.5569 3.2368
TCL: Exiting due to exit command.
