Info: SIMULATION PARAMETERS:
Info: TIMESTEP               2
Info: NUMBER OF STEPS        0
Info: STEPS PER CYCLE        10
Info: PERIODIC CELL BASIS 1  44.537 0 0
Info: PERIODIC CELL BASIS 2  0 43.424 0
Info: PERIODIC CELL BASIS 3  0 0 44.319
Info: PERIODIC CELL CENTER   0 0 0
Info: WRAPPING WATERS AROUND PERIODIC BOUNDARIES ON OUTPUT.
Info: WRAPPING ALL CLUSTERS AROUND PERIODIC BOUNDARIES ON OUTPUT.
Info: FIRST LDB TIMESTEP     50
Info: LAST LDB TIMESTEP     -1
Info: HOM BACKGROUND SCALING 1
Info: PME BACKGROUND SCALING 1
Info: MIN ATOMS PER PATCH    40
Info: EMPTY PATCH LOAD       40 ATOMS
Info: INITIAL TEMPERATURE    300
Info: CENTER OF MASS MOVING INITIALLY? NO
Info: DIELECTRIC             1
Info: EXCLUDE                SCALED ONE-FOUR
Info: 1-4 ELECTROSTATICS SCALED BY 0.833333
Info: MODIFIED 1-4 VDW PARAMETERS WILL BE USED
Info: DCD FILENAME           mobley_7829570_min.dcd
Info: DCD FREQUENCY          5000
Info: DCD FIRST STEP         5000
Info: DCD FILE WILL CONTAIN UNIT CELL DATA
Info: XST FILENAME           mobley_7829570_min.xst
Info: XST FREQUENCY          5000
Info: NO VELOCITY DCD OUTPUT
Info: NO FORCE DCD OUTPUT
Info: OUTPUT FILENAME        mobley_7829570_min
Info: BINARY OUTPUT FILES WILL BE USED
Info: RESTART FILENAME       mobley_7829570_min.restart
Info: RESTART FREQUENCY      5000
Info: BINARY RESTART FILES WILL BE USED
Info: CUTOFF                 9
Info: PAIRLIST DISTANCE      11
Info: PAIRLIST SHRINK RATE   0.01
Info: PAIRLIST GROW RATE     0.01
Info: PAIRLIST TRIGGER       0.3
Info: PAIRLISTS PER CYCLE    2
Info: PAIRLISTS ENABLED
Info: MARGIN                 8
Info: HYDROGEN GROUP CUTOFF  2.5
Info: PATCH DIMENSION        21.5
Info: ENERGY OUTPUT STEPS    5000
Info: ENERGY EVALUATION STEPS    5000
Info: OUTPUT ENERGY PRECISION 4
Info: CROSSTERM ENERGY INCLUDED IN DIHEDRAL
Info: TIMING OUTPUT STEPS    50000
Info: PRESSURE OUTPUT STEPS  5000
Info: LANGEVIN DYNAMICS ACTIVE
Info: LANGEVIN TEMPERATURE   300
Info: LANGEVIN USING BBK INTEGRATOR
Info: LANGEVIN DAMPING COEFFICIENT IS 1 INVERSE PS
Info: LANGEVIN DYNAMICS APPLIED TO HYDROGENS
Info: LANGEVIN PISTON PRESSURE CONTROL ACTIVE
Info:        TARGET PRESSURE IS 1.01325 BAR
Info:     OSCILLATION PERIOD IS 50 FS
Info:             DECAY TIME IS 25 FS
Info:     PISTON TEMPERATURE IS 300 K
Info:       PRESSURE CONTROL IS GROUP-BASED
Info:    INITIAL STRAIN RATE IS 0 0 0
Info:       CELL FLUCTUATION IS ISOTROPIC
Info: PARTICLE MESH EWALD (PME) ACTIVE
Info: PME TOLERANCE               1e-06
Info: PME EWALD COEFFICIENT       0.348832
Info: PME INTERPOLATION ORDER     4
Info: PME GRID DIMENSIONS         48 44 48
Info: PME MAXIMUM GRID SPACING    1
Info: FULL ELECTROSTATIC EVALUATION FREQUENCY      2
Info: USING VERLET I (r-RESPA) MTS SCHEME.
Info: C1 SPLITTING OF LONG RANGE ELECTROSTATICS
Info: PLACING ATOMS IN PATCHES BY HYDROGEN GROUPS
Info: RIGID BONDS TO HYDROGEN : ALL
Info:         ERROR TOLERANCE : 1e-08
Info:          MAX ITERATIONS : 100
Info: RIGID WATER USING SETTLE ALGORITHM
Info: RANDOM NUMBER SEED     1741390872
Info: USE HYDROGEN BONDS?    NO
Info: Using AMBER format force field!
Info: AMBER PARM FILE        mobley_7829570.prmtop
Info: COORDINATE PDB         mobley_7829570.pdb
Info: Exclusions will be read from PARM file!
Info: SCNB (VDW SCALING)     2
Info: USING ARITHMETIC MEAN TO COMBINE L-J SIGMA PARAMETERS
Info: SUMMARY OF PARAMETERS:
Info: 13 BONDS
Info: 18 ANGLES
Info:   18 HARMONIC
Info:   0 COSINE-BASED
Info: 11 DIHEDRAL
Info: 0 IMPROPER
Info: 0 CROSSTERM
Info: 0 VDW
Info: 66 VDW_PAIRS
Info: 0 NBTHOLE_PAIRS
Info: STRUCTURE SUMMARY:
Info: 6180 ATOMS
Info: 6180 BONDS
Info: 69 ANGLES
Info: 93 DIHEDRALS
Info: 0 IMPROPERS
Info: 0 CROSSTERMS
Info: 6336 EXCLUSIONS
Info: 6157 RIGID BONDS
Info: 12383 DEGREES OF FREEDOM
Info: 2070 HYDROGEN GROUPS
Info: 4 ATOMS IN LARGEST HYDROGEN GROUP
Info: 2070 MIGRATION GROUPS
Info: 4 ATOMS IN LARGEST MIGRATION GROUP
Info: TOTAL MASS = 37214 amu
Info: TOTAL CHARGE = 1.30385e-08 e
Info: MASS DENSITY = 0.720984 g/cm^3
Info: ATOM DENSITY = 0.0721021 atoms/A^3
Info: ADDED 0 IMPLICIT EXCLUSIONS
Info: NONBONDED TABLE R-SQUARED SPACING: 0.0625
Info: NONBONDED TABLE SIZE: 705 POINTS
Info: REMOVING COM VELOCITY -0.0151364 -0.14543 -0.0291151
TCL: Minimizing for 2000 steps
ETITLE: TS BOND ANGLE DIHED IMPRP ELECT VDW BOUNDARY MISC KINETIC TOTAL TEMP POTENTIAL TOTAL3 TEMPAVG PRESSURE GPRESSURE VOLUME PRESSAVG GPRESSAVG
ENERGY: 0 3.0997 3.0656 19.1849 0.0000 -19130.2961 2132.5940 0.0000 0.0000 0.0000 -16972.3520 0.0000 -16972.3520 -16972.3520 0.0000 11045.9618 -15638.0989 85711.8242 11045.9618 -15638.0989
ENERGY: 400 2.9527 3.7838 16.2001 0.0000 -25704.3787 3677.1693 0.0000 0.0000 0.0000 -22004.2728 0.0000 -22004.2728 -22004.2728 0.0000 15499.8488 15661.3926 85711.8242 15499.8488 15661.3926
ENERGY: 800 29.1439 14.2960 15.6251 0.0000 -27151.1771 4370.8917 0.0000 0.0000 0.0000 -22721.2205 0.0000 -22721.2205 -22721.2205 0.0000 18029.5473 18160.4318 85711.8242 18029.5473 18160.4318
ENERGY: 1200 0.8117 1.7957 15.6849 0.0000 -27747.4009 4621.7845 0.0000 0.0000 0.0000 -23107.3241 0.0000 -23107.3241 -23107.3241 0.0000 19043.5393 19166.8658 85711.8242 19043.5393 19166.8658
ENERGY: 1600 0.7965 1.5538 15.9779 0.0000 -28014.2845 4735.4684 0.0000 0.0000 0.0000 -23260.4879 0.0000 -23260.4879 -23260.4879 0.0000 19498.5909 19614.4022 85711.8242 19498.5909 19614.4022
ENERGY: 2000 1.6978 2.2655 15.5970 0.0000 -28224.2838 4815.6886 0.0000 0.0000 0.0000 -23389.0350 0.0000 -23389.0350 -23389.0350 0.0000 19820.4435 19944.0200 85711.8242 19820.4435 19944.0200
TCL: Exiting due to exit command.
Info: NAMD 3.0.1 for Linux-x86_64-multicore
Info: Please visit http://www.ks.uiuc.edu/Research/namd/
Info: for updates, documentation, and support information.
Info: Please cite Phillips et al., J. Chem. Phys. 153:044130 (2020) doi:10.1063/5.0014475
Info: in all publications reporting results obtained with NAMD.
Info: Based on Charm++/Converse 80000 for multicore-linux-x86_64-gcc
Info: Built Mon Oct 14 11:11:06 CDT 2024 by dhardy on athine.ks.uiuc.edu
Info: 1 NAMD  3.0.1  Linux-x86_64-multicore  16    k063  z5358697
Info: Running on 16 processors, 1 nodes, 1 physical nodes.
Info: CPU topology information available.
Info: Charm++/Converse parallel runtime startup completed at 0.00920907 s
Info: 1043.46 MB of memory in use based on /proc/self/stat
Info: Configuration file is mobley_7829570_equil.namd
Info: Working in the current directory /srv/scratch/z5358697/prod_prep_10/7829570
TCL: Running 25000 steps at 30 kelvin.
TCL: Suspending until startup complete.
Info: SIMULATION PARAMETERS:
Info: TIMESTEP               2
Info: NUMBER OF STEPS        0
Info: STEPS PER CYCLE        10
Info: PERIODIC CELL BASIS 1  44.537 0 0
Info: PERIODIC CELL BASIS 2  0 43.424 0
Info: PERIODIC CELL BASIS 3  0 0 44.319
Info: PERIODIC CELL CENTER   0 0 0
Info: WRAPPING WATERS AROUND PERIODIC BOUNDARIES ON OUTPUT.
Info: WRAPPING ALL CLUSTERS AROUND PERIODIC BOUNDARIES ON OUTPUT.
Info: FIRST LDB TIMESTEP     50
Info: LAST LDB TIMESTEP     -1
Info: HOM BACKGROUND SCALING 1
Info: PME BACKGROUND SCALING 1
Info: MIN ATOMS PER PATCH    40
Info: EMPTY PATCH LOAD       40 ATOMS
Info: INITIAL TEMPERATURE    300
Info: CENTER OF MASS MOVING INITIALLY? NO
Info: DIELECTRIC             1
Info: EXCLUDE                SCALED ONE-FOUR
Info: 1-4 ELECTROSTATICS SCALED BY 0.833333
Info: MODIFIED 1-4 VDW PARAMETERS WILL BE USED
Info: DCD FILENAME           mobley_7829570_equil.dcd
Info: DCD FREQUENCY          5000
Info: DCD FIRST STEP         5000
Info: DCD FILE WILL CONTAIN UNIT CELL DATA
Info: XST FILENAME           mobley_7829570_equil.xst
Info: XST FREQUENCY          5000
Info: NO VELOCITY DCD OUTPUT
Info: NO FORCE DCD OUTPUT
Info: OUTPUT FILENAME        mobley_7829570_equil
Info: BINARY OUTPUT FILES WILL BE USED
Info: RESTART FILENAME       mobley_7829570_equil.restart
Info: RESTART FREQUENCY      5000
Info: BINARY RESTART FILES WILL BE USED
Info: CUTOFF                 9
Info: PAIRLIST DISTANCE      11
Info: PAIRLIST SHRINK RATE   0.01
Info: PAIRLIST GROW RATE     0.01
Info: PAIRLIST TRIGGER       0.3
Info: PAIRLISTS PER CYCLE    2
Info: PAIRLISTS ENABLED
Info: MARGIN                 8
Info: HYDROGEN GROUP CUTOFF  2.5
Info: PATCH DIMENSION        21.5
Info: ENERGY OUTPUT STEPS    5000
Info: ENERGY EVALUATION STEPS    5000
Info: OUTPUT ENERGY PRECISION 4
Info: CROSSTERM ENERGY INCLUDED IN DIHEDRAL
Info: TIMING OUTPUT STEPS    50000
Info: PRESSURE OUTPUT STEPS  5000
Info: LANGEVIN DYNAMICS ACTIVE
Info: LANGEVIN TEMPERATURE   30
Info: LANGEVIN USING BBK INTEGRATOR
Info: LANGEVIN DAMPING COEFFICIENT IS 1 INVERSE PS
Info: LANGEVIN DYNAMICS APPLIED TO HYDROGENS
Info: LANGEVIN PISTON PRESSURE CONTROL ACTIVE
Info:        TARGET PRESSURE IS 1.01325 BAR
Info:     OSCILLATION PERIOD IS 50 FS
Info:             DECAY TIME IS 25 FS
Info:     PISTON TEMPERATURE IS 300 K
Info:       PRESSURE CONTROL IS GROUP-BASED
Info:    INITIAL STRAIN RATE IS 0 0 0
Info:       CELL FLUCTUATION IS ISOTROPIC
Info: PARTICLE MESH EWALD (PME) ACTIVE
Info: PME TOLERANCE               1e-06
Info: PME EWALD COEFFICIENT       0.348832
Info: PME INTERPOLATION ORDER     4
Info: PME GRID DIMENSIONS         48 44 48
Info: PME MAXIMUM GRID SPACING    1
Info: FULL ELECTROSTATIC EVALUATION FREQUENCY      2
Info: USING VERLET I (r-RESPA) MTS SCHEME.
Info: C1 SPLITTING OF LONG RANGE ELECTROSTATICS
Info: PLACING ATOMS IN PATCHES BY HYDROGEN GROUPS
Info: RIGID BONDS TO HYDROGEN : ALL
Info:         ERROR TOLERANCE : 1e-08
Info:          MAX ITERATIONS : 100
Info: RIGID WATER USING SETTLE ALGORITHM
Info: RANDOM NUMBER SEED     1741390900
Info: USE HYDROGEN BONDS?    NO
Info: Using AMBER format force field!
Info: AMBER PARM FILE        mobley_7829570.prmtop
Info: COORDINATE PDB         mobley_7829570.pdb
Info: Exclusions will be read from PARM file!
Info: SCNB (VDW SCALING)     2
Info: USING ARITHMETIC MEAN TO COMBINE L-J SIGMA PARAMETERS
Info: BINARY COORDINATES     mobley_7829570_min.coor
Info: SUMMARY OF PARAMETERS:
Info: 13 BONDS
Info: 18 ANGLES
Info:   18 HARMONIC
Info:   0 COSINE-BASED
Info: 11 DIHEDRAL
Info: 0 IMPROPER
Info: 0 CROSSTERM
Info: 0 VDW
Info: 66 VDW_PAIRS
Info: 0 NBTHOLE_PAIRS
Info: STRUCTURE SUMMARY:
Info: 6180 ATOMS
Info: 6180 BONDS
Info: 69 ANGLES
Info: 93 DIHEDRALS
Info: 0 IMPROPERS
Info: 0 CROSSTERMS
Info: 6336 EXCLUSIONS
Info: 6157 RIGID BONDS
Info: 12383 DEGREES OF FREEDOM
Info: 2070 HYDROGEN GROUPS
Info: 4 ATOMS IN LARGEST HYDROGEN GROUP
Info: 2070 MIGRATION GROUPS
Info: 4 ATOMS IN LARGEST MIGRATION GROUP
Info: TOTAL MASS = 37214 amu
Info: TOTAL CHARGE = 1.30385e-08 e
Info: MASS DENSITY = 0.720984 g/cm^3
Info: ATOM DENSITY = 0.0721021 atoms/A^3
Info: ADDED 0 IMPLICIT EXCLUSIONS
Info: NONBONDED TABLE R-SQUARED SPACING: 0.0625
Info: NONBONDED TABLE SIZE: 705 POINTS
Info: REMOVING COM VELOCITY 0.00167145 0.0574296 -0.0107127
TCL: Running for 25000 steps
ETITLE: TS BOND ANGLE DIHED IMPRP ELECT VDW BOUNDARY MISC KINETIC TOTAL TEMP POTENTIAL TOTAL3 TEMPAVG PRESSURE GPRESSURE VOLUME PRESSAVG GPRESSAVG
ENERGY: 0 1.6978 2.2655 15.5970 0.0000 -28224.2839 4815.6886 0.0000 0.0000 3588.9160 -19800.1190 291.6942 -23389.0350 -19799.3820 291.6942 157.2891 200.0328 85711.8242 157.2891 200.0328
ENERGY: 5000 1.5597 2.7901 13.0126 0.0000 -29621.3600 5181.1898 0.0000 0.0000 375.5839 -24047.2240 30.5261 -24422.8079 -24046.2046 47.0656 279.1222 308.3611 60729.9726 0.8600 0.8063
ENERGY: 10000 1.9528 3.2383 13.7906 0.0000 -29569.0678 5090.7462 0.0000 0.0000 374.6988 -24084.6412 30.4542 -24459.3400 -24083.7259 30.1682 -129.6503 -79.1368 60492.4666 0.3344 0.0502
ENERGY: 15000 0.9691 2.3501 14.8376 0.0000 -29629.7537 5117.8964 0.0000 0.0000 369.7289 -24123.9717 30.0502 -24493.7006 -24123.0181 30.4700 -46.8395 7.6749 60526.0986 1.7934 2.0026
ENERGY: 20000 1.6638 2.8729 13.1286 0.0000 -29630.7144 5089.1683 0.0000 0.0000 368.4676 -24155.4132 29.9477 -24523.8808 -24154.2775 30.2183 -225.0013 -166.7968 60389.5015 2.9385 2.8995
ENERGY: 25000 1.6765 2.5662 13.9167 0.0000 -29691.6925 5149.4975 0.0000 0.0000 372.7971 -24151.2384 30.2996 -24524.0355 -24150.3674 30.0839 28.2313 92.6146 60312.9734 0.7851 0.6067
TCL: Running 25000 steps at 60 kelvin.
TCL: Setting parameter langevinTemp to 60
TCL: Running for 25000 steps
ETITLE: TS BOND ANGLE DIHED IMPRP ELECT VDW BOUNDARY MISC KINETIC TOTAL TEMP POTENTIAL TOTAL3 TEMPAVG PRESSURE GPRESSURE VOLUME PRESSAVG GPRESSAVG
ENERGY: 25000 1.6765 2.5662 13.9167 0.0000 -29691.6925 5149.4975 0.0000 0.0000 372.6167 -24151.4189 30.2849 -24524.0355 -24150.6025 30.2849 40.1872 92.5110 60312.9734 40.1872 92.5110
ENERGY: 30000 1.6588 5.1950 14.7838 0.0000 -29254.8810 5052.3915 0.0000 0.0000 733.8441 -23447.0078 59.6442 -24180.8519 -23444.6068 57.0185 249.0371 307.6331 60520.8999 1.4759 1.2732
ENERGY: 35000 1.8041 4.5925 14.4484 0.0000 -29052.0892 4798.9398 0.0000 0.0000 749.4602 -23482.8443 60.9134 -24232.3045 -23480.8919 60.6018 -779.5391 -704.9305 60545.4106 6.4148 6.0292
ENERGY: 40000 1.6719 3.7048 14.0516 0.0000 -29029.3381 4737.5447 0.0000 0.0000 754.9913 -23517.3737 61.3630 -24272.3651 -23514.6832 59.9756 -1126.8966 -1077.4637 60825.5749 0.5734 0.8069
ENERGY: 45000 1.9674 5.2208 14.6954 0.0000 -29304.6359 4999.9260 0.0000 0.0000 734.0258 -23548.8005 59.6590 -24282.8263 -23547.3397 60.2967 -58.2880 1.3392 60151.8901 4.7044 4.8557
ENERGY: 50000 2.3585 3.9044 14.4537 0.0000 -29420.1870 5091.4445 0.0000 0.0000 734.6185 -23573.4074 59.7072 -24308.0259 -23571.7808 60.3909 304.4248 367.1490 59949.3789 1.3320 1.3426
TCL: Running 25000 steps at 90 kelvin.
TCL: Setting parameter langevinTemp to 90
TCL: Running for 25000 steps
ETITLE: TS BOND ANGLE DIHED IMPRP ELECT VDW BOUNDARY MISC KINETIC TOTAL TEMP POTENTIAL TOTAL3 TEMPAVG PRESSURE GPRESSURE VOLUME PRESSAVG GPRESSAVG
ENERGY: 50000 2.3585 3.9044 14.4537 0.0000 -29420.1870 5091.4445 0.0000 0.0000 734.2598 -23573.7662 59.6780 -24308.0259 -23572.4273 59.6780 306.3490 367.2728 59949.3789 306.3490 367.2728
ENERGY: 55000 4.5125 7.0418 16.2940 0.0000 -28809.5677 4817.9443 0.0000 0.0000 1135.3115 -22828.4636 92.2740 -23963.7751 -22825.7827 87.2522 -302.4007 -232.8965 60697.9827 9.2915 8.8095
ENERGY: 60000 3.3425 3.9062 15.0824 0.0000 -28953.0008 4892.5030 0.0000 0.0000 1101.7840 -22936.3827 89.5490 -24038.1667 -22933.6418 90.3565 70.4461 125.7176 59968.1805 3.0706 3.0307
ENERGY: 65000 1.4229 6.3560 13.8319 0.0000 -28893.8490 4801.2762 0.0000 0.0000 1134.7584 -22936.2037 92.2291 -24070.9620 -22933.5907 90.3766 -395.1371 -332.4201 60319.9759 0.4073 0.2742
ENERGY: 70000 2.7590 7.7176 14.4239 0.0000 -28694.3462 4587.2220 0.0000 0.0000 1099.3474 -22982.8762 89.3510 -24082.2235 -22980.1635 90.2469 -1327.9593 -1326.8893 60605.5407 3.0219 3.0963
ENERGY: 75000 2.6209 3.8225 13.4514 0.0000 -29142.9314 5024.9285 0.0000 0.0000 1113.5075 -22984.6005 90.5019 -24098.1081 -22981.1823 90.2265 470.5089 509.0054 59742.8259 1.4403 1.0780
TCL: Running 25000 steps at 120 kelvin.
TCL: Setting parameter langevinTemp to 120
TCL: Running for 25000 steps
ETITLE: TS BOND ANGLE DIHED IMPRP ELECT VDW BOUNDARY MISC KINETIC TOTAL TEMP POTENTIAL TOTAL3 TEMPAVG PRESSURE GPRESSURE VOLUME PRESSAVG GPRESSAVG
ENERGY: 75000 2.6209 3.8225 13.4514 0.0000 -29142.9314 5024.9285 0.0000 0.0000 1112.9455 -22985.1625 90.4562 -24098.1080 -22983.1230 90.4562 468.1413 508.9087 59742.8259 468.1413 508.9087
ENERGY: 80000 3.6684 6.9843 14.9207 0.0000 -28239.5237 4548.7167 0.0000 0.0000 1506.4503 -22158.7832 122.4389 -23665.2335 -22154.5391 116.4540 -762.2484 -673.8597 60575.9532 4.4758 4.5991
ENERGY: 85000 5.4432 7.2051 14.0350 0.0000 -28518.5526 4726.1234 0.0000 0.0000 1520.3661 -22245.3798 123.5699 -23765.7459 -22241.4791 120.9076 -186.8708 -111.8197 60080.8433 -1.8125 -1.3825
ENERGY: 90000 4.1545 7.4440 15.4593 0.0000 -28566.6303 4769.5336 0.0000 0.0000 1488.7593 -22281.2796 121.0010 -23770.0389 -22278.4184 121.0035 47.1103 111.7307 59952.9475 4.0934 3.6778
ENERGY: 95000 5.0629 7.7933 14.9005 0.0000 -28696.7328 4899.4234 0.0000 0.0000 1496.7386 -22272.8140 121.6495 -23769.5527 -22269.4442 120.3804 535.9522 558.7041 59899.4713 8.3985 8.4577
ENERGY: 100000 4.4400 6.8737 16.0274 0.0000 -28808.0288 4976.3056 0.0000 0.0000 1508.7211 -22295.6609 122.6234 -23804.3821 -22291.9879 120.3649 769.5061 797.0131 59863.0173 1.5666 1.9103
TCL: Running 25000 steps at 150 kelvin.
TCL: Setting parameter langevinTemp to 150
TCL: Running for 25000 steps
ETITLE: TS BOND ANGLE DIHED IMPRP ELECT VDW BOUNDARY MISC KINETIC TOTAL TEMP POTENTIAL TOTAL3 TEMPAVG PRESSURE GPRESSURE VOLUME PRESSAVG GPRESSAVG
ENERGY: 100000 4.4400 6.8737 16.0274 0.0000 -28808.0287 4976.3056 0.0000 0.0000 1507.9996 -22296.3824 122.5648 -23804.3821 -22293.2131 122.5648 741.2017 797.3086 59863.0173 741.2017 797.3086
ENERGY: 105000 5.7340 7.8634 16.7903 0.0000 -27969.0981 4655.0418 0.0000 0.0000 1833.4689 -21450.1997 149.0178 -23283.6686 -21447.1684 146.4253 337.7085 383.6266 60347.6721 3.6871 3.7303
ENERGY: 110000 4.9572 5.7897 17.7675 0.0000 -28070.0638 4710.9382 0.0000 0.0000 1869.5132 -21461.0979 151.9473 -23330.6111 -21455.9450 150.6805 390.0142 472.8821 60403.9623 5.0076 4.8830
ENERGY: 115000 3.1082 8.1427 20.1447 0.0000 -28054.0102 4653.3945 0.0000 0.0000 1849.0237 -21520.1964 150.2820 -23369.2201 -21516.3948 151.2217 113.7054 163.8048 60413.1786 1.3098 1.4044
ENERGY: 120000 4.8352 7.3827 17.5659 0.0000 -28075.6131 4704.6310 0.0000 0.0000 1856.3536 -21484.8446 150.8778 -23341.1982 -21478.1919 151.1168 416.1222 451.5440 60164.7020 -0.3701 -0.3120
ENERGY: 125000 3.0797 8.7931 19.1219 0.0000 -28029.1119 4579.8738 0.0000 0.0000 1871.3193 -21546.9240 152.0941 -23418.2433 -21540.2698 151.0258 -183.7482 -121.3985 60197.7993 -3.1958 -2.8597
TCL: Running 50000 steps at 180 kelvin.
TCL: Setting parameter langevinTemp to 180
TCL: Running for 50000 steps
ETITLE: TS BOND ANGLE DIHED IMPRP ELECT VDW BOUNDARY MISC KINETIC TOTAL TEMP POTENTIAL TOTAL3 TEMPAVG PRESSURE GPRESSURE VOLUME PRESSAVG GPRESSAVG
ENERGY: 125000 3.0797 8.7931 19.1219 0.0000 -28029.1119 4579.8738 0.0000 0.0000 1870.4127 -21547.8306 152.0204 -23418.2433 -21543.9057 152.0204 -177.3808 -120.7226 60197.7993 -177.3808 -120.7226
ENERGY: 135000 6.5753 9.5707 14.8277 0.0000 -27184.7795 4259.0519 0.0000 0.0000 2151.9840 -20742.7698 174.9055 -22894.7538 -20739.1103 180.1466 -580.1098 -529.2257 60639.2687 -1.7518 -1.5207
ENERGY: 145000 4.1514 8.5676 15.3005 0.0000 -27157.3858 4222.5479 0.0000 0.0000 2211.4893 -20695.3290 179.7419 -22906.8183 -20689.7812 178.2948 -527.1041 -485.8955 60273.7209 -0.0577 0.0787
ENERGY: 155000 6.8547 8.1261 18.1618 0.0000 -27168.2522 4273.7431 0.0000 0.0000 2209.2266 -20652.1399 179.5580 -22861.3665 -20647.5169 180.0519 -321.2293 -292.1746 60116.8938 2.4979 2.7189
ENERGY: 165000 2.1354 10.3329 18.1251 0.0000 -27352.7354 4384.2729 0.0000 0.0000 2208.6055 -20729.2636 179.5075 -22937.8691 -20723.9276 179.7389 116.7440 174.3838 60179.2738 6.1839 6.1219
ENERGY: 175000 6.2842 7.9145 16.5221 0.0000 -27264.3948 4276.1842 0.0000 0.0000 2168.7317 -20788.7583 176.2667 -22957.4899 -20783.4015 180.3014 -457.5761 -368.3541 60037.9061 5.2205 4.8984
TCL: Running 50000 steps at 210 kelvin.
TCL: Setting parameter langevinTemp to 210
TCL: Running for 50000 steps
ETITLE: TS BOND ANGLE DIHED IMPRP ELECT VDW BOUNDARY MISC KINETIC TOTAL TEMP POTENTIAL TOTAL3 TEMPAVG PRESSURE GPRESSURE VOLUME PRESSAVG GPRESSAVG
ENERGY: 175000 6.2842 7.9145 16.5221 0.0000 -27264.3948 4276.1842 0.0000 0.0000 2167.6679 -20789.8221 176.1803 -22957.4899 -20785.0996 176.1803 -429.9318 -367.8804 60037.9061 -429.9318 -367.8804
ENERGY: 185000 4.8545 10.6217 18.2415 0.0000 -25979.2803 3936.3733 0.0000 0.0000 2593.9396 -19415.2497 210.8261 -22009.1893 -19410.4215 209.7732 -263.4782 -164.9526 60486.1592 1.4793 1.4691
ENERGY: 195000 5.7238 8.4580 14.5665 0.0000 -26056.8138 3991.1476 0.0000 0.0000 2587.2028 -19449.7152 210.2786 -22036.9180 -19443.8012 210.1116 114.0628 210.9246 59818.8369 -0.3933 -0.4359
ENERGY: 205000 4.5223 11.2040 17.3519 0.0000 -26035.4838 3977.0741 0.0000 0.0000 2599.3700 -19425.9614 211.2675 -22025.3314 -19417.8268 210.1790 206.4851 248.8326 59754.1606 1.7392 1.2481
ENERGY: 215000 4.8351 9.3021 19.4502 0.0000 -26209.6223 4156.6427 0.0000 0.0000 2572.2572 -19447.1350 209.0638 -22019.3922 -19442.4311 211.5735 685.8574 791.7043 60361.5081 2.9818 2.6766
ENERGY: 225000 5.5811 9.7327 17.9478 0.0000 -25889.2376 3874.2745 0.0000 0.0000 2604.8318 -19376.8697 211.7114 -21981.7015 -19371.2723 210.1379 -401.9945 -313.6783 60570.8379 6.3350 5.9417
TCL: Running 50000 steps at 240 kelvin.
TCL: Setting parameter langevinTemp to 240
TCL: Running for 50000 steps
ETITLE: TS BOND ANGLE DIHED IMPRP ELECT VDW BOUNDARY MISC KINETIC TOTAL TEMP POTENTIAL TOTAL3 TEMPAVG PRESSURE GPRESSURE VOLUME PRESSAVG GPRESSAVG
ENERGY: 225000 5.5811 9.7327 17.9478 0.0000 -25889.2376 3874.2745 0.0000 0.0000 2603.5146 -19378.1869 211.6043 -21981.7015 -19373.4801 211.6043 -394.5803 -314.6995 60570.8379 -394.5803 -314.6995
ENERGY: 235000 4.0407 16.6503 18.9417 0.0000 -24621.3291 3467.8686 0.0000 0.0000 2942.4157 -18171.4121 239.1490 -21113.8278 -18167.0774 240.7423 -361.6631 -266.7247 60539.1419 0.8121 0.8963
ENERGY: 245000 8.7048 14.9105 17.3679 0.0000 -24665.4151 3571.0416 0.0000 0.0000 2924.3961 -18128.9942 237.6844 -21053.3903 -18122.3542 238.9987 54.2358 114.0903 60654.0945 1.5345 0.9632
ENERGY: 255000 4.6084 10.7908 18.1873 0.0000 -24714.7310 3575.4541 0.0000 0.0000 2976.8537 -18128.8367 241.9480 -21105.6904 -18122.2154 241.4283 128.6360 233.1707 60081.2371 -1.8614 -1.4990
ENERGY: 265000 3.7077 11.0991 18.4379 0.0000 -24727.4682 3677.5176 0.0000 0.0000 2924.8673 -18091.8386 237.7227 -21016.7059 -18087.8402 238.2182 294.5839 448.4916 61011.4079 -0.1134 0.2753
ENERGY: 275000 4.1873 12.3368 20.9760 0.0000 -24843.5701 3692.4630 0.0000 0.0000 3005.5705 -18108.0364 244.2820 -21113.6070 -18101.2944 239.8476 315.3904 373.4403 60862.4284 3.1846 3.2875
TCL: Running 50000 steps at 270 kelvin.
TCL: Setting parameter langevinTemp to 270
TCL: Running for 50000 steps
ETITLE: TS BOND ANGLE DIHED IMPRP ELECT VDW BOUNDARY MISC KINETIC TOTAL TEMP POTENTIAL TOTAL3 TEMPAVG PRESSURE GPRESSURE VOLUME PRESSAVG GPRESSAVG
ENERGY: 275000 4.1873 12.3368 20.9760 0.0000 -24843.5701 3692.4630 0.0000 0.0000 3004.0662 -18109.5408 244.1597 -21113.6070 -18103.8554 244.1597 291.4987 373.8252 60862.4284 291.4987 373.8252
ENERGY: 285000 5.6231 12.2817 16.0372 0.0000 -23481.0380 3326.9154 0.0000 0.0000 3280.7017 -16839.4789 266.6437 -20120.1806 -16832.1510 270.6179 334.3767 416.7332 61629.7801 -0.7593 -0.5013
ENERGY: 295000 3.4379 12.1264 20.3227 0.0000 -23444.8013 3188.1136 0.0000 0.0000 3280.6341 -16940.1666 266.6382 -20220.8007 -16931.6776 269.2155 -259.2361 -161.2469 61758.5707 3.8431 3.4815
ENERGY: 305000 5.3686 15.2069 22.8974 0.0000 -23593.0138 3305.6575 0.0000 0.0000 3343.0406 -16900.8429 271.7103 -20243.8835 -16896.0212 270.3340 109.9729 158.1367 61974.9183 -2.1344 -2.3272
ENERGY: 315000 9.8941 13.5009 21.5934 0.0000 -23594.2793 3373.2678 0.0000 0.0000 3360.8922 -16815.1309 273.1612 -20176.0231 -16811.3193 269.3239 523.3026 600.1116 61614.7987 1.4643 1.2942
ENERGY: 325000 6.3236 17.1430 16.3782 0.0000 -23460.5626 3213.2985 0.0000 0.0000 3293.9529 -16913.4665 267.7207 -20207.4194 -16904.5015 270.2945 -172.7164 -122.9434 61793.0585 7.1796 7.2849
TCL: Running 1000000 steps at 300 kelvin.
TCL: Setting parameter langevinTemp to 300
TCL: Running for 1000000 steps
ETITLE: TS BOND ANGLE DIHED IMPRP ELECT VDW BOUNDARY MISC KINETIC TOTAL TEMP POTENTIAL TOTAL3 TEMPAVG PRESSURE GPRESSURE VOLUME PRESSAVG GPRESSAVG
ENERGY: 325000 6.3236 17.1430 16.3782 0.0000 -23460.5626 3213.2985 0.0000 0.0000 3292.3590 -16915.0604 267.5911 -20207.4194 -16909.2791 267.5911 -196.7729 -123.5372 61793.0585 -196.7729 -123.5372
ENERGY: 525000 8.2551 17.0800 22.7278 0.0000 -22431.9357 2971.0984 0.0000 0.0000 3646.7773 -15765.9971 296.3970 -19412.7744 -15757.7102 300.8966 -230.2020 -141.7002 63549.7013 2.3431 2.1313
ENERGY: 725000 7.7538 11.7126 17.9767 0.0000 -22348.2714 3046.3645 0.0000 0.0000 3653.6672 -15610.7966 296.9569 -19264.4637 -15600.7099 300.4363 211.2433 262.6375 63708.1080 3.4413 3.5534
ENERGY: 925000 6.8344 18.6501 21.3148 0.0000 -22689.8340 3178.7930 0.0000 0.0000 3642.9794 -15821.2623 296.0883 -19464.2417 -15815.1733 298.2015 468.2479 568.1039 63490.1120 5.0843 5.2248
ENERGY: 1125000 9.8963 15.5053 19.3056 0.0000 -22478.5819 3045.7773 0.0000 0.0000 3657.8851 -15730.2123 297.2998 -19388.0974 -15725.3864 298.6170 70.9013 200.0086 63273.9806 2.6845 2.7398
ENERGY: 1325000 7.3888 13.6367 16.3044 0.0000 -22324.6185 3005.3701 0.0000 0.0000 3690.0783 -15591.8402 299.9163 -19281.9185 -15583.5598 300.2157 -81.7738 -14.3169 64143.4519 5.6994 5.0251
TCL: Exiting due to exit command.
