Info: SIMULATION PARAMETERS:
Info: TIMESTEP               2
Info: NUMBER OF STEPS        0
Info: STEPS PER CYCLE        10
Info: PERIODIC CELL BASIS 1  44.675 0 0
Info: PERIODIC CELL BASIS 2  0 43.47 0
Info: PERIODIC CELL BASIS 3  0 0 44.171
Info: PERIODIC CELL CENTER   0 0 0
Info: WRAPPING WATERS AROUND PERIODIC BOUNDARIES ON OUTPUT.
Info: WRAPPING ALL CLUSTERS AROUND PERIODIC BOUNDARIES ON OUTPUT.
Info: FIRST LDB TIMESTEP     50
Info: LAST LDB TIMESTEP     -1
Info: HOM BACKGROUND SCALING 1
Info: PME BACKGROUND SCALING 1
Info: MIN ATOMS PER PATCH    40
Info: EMPTY PATCH LOAD       40 ATOMS
Info: INITIAL TEMPERATURE    300
Info: CENTER OF MASS MOVING INITIALLY? NO
Info: DIELECTRIC             1
Info: EXCLUDE                SCALED ONE-FOUR
Info: 1-4 ELECTROSTATICS SCALED BY 0.833333
Info: MODIFIED 1-4 VDW PARAMETERS WILL BE USED
Info: DCD FILENAME           mobley_1034539_min.dcd
Info: DCD FREQUENCY          5000
Info: DCD FIRST STEP         5000
Info: DCD FILE WILL CONTAIN UNIT CELL DATA
Info: XST FILENAME           mobley_1034539_min.xst
Info: XST FREQUENCY          5000
Info: NO VELOCITY DCD OUTPUT
Info: NO FORCE DCD OUTPUT
Info: OUTPUT FILENAME        mobley_1034539_min
Info: BINARY OUTPUT FILES WILL BE USED
Info: RESTART FILENAME       mobley_1034539_min.restart
Info: RESTART FREQUENCY      5000
Info: BINARY RESTART FILES WILL BE USED
Info: CUTOFF                 9
Info: PAIRLIST DISTANCE      11
Info: PAIRLIST SHRINK RATE   0.01
Info: PAIRLIST GROW RATE     0.01
Info: PAIRLIST TRIGGER       0.3
Info: PAIRLISTS PER CYCLE    2
Info: PAIRLISTS ENABLED
Info: MARGIN                 8
Info: HYDROGEN GROUP CUTOFF  2.5
Info: PATCH DIMENSION        21.5
Info: ENERGY OUTPUT STEPS    5000
Info: ENERGY EVALUATION STEPS    5000
Info: OUTPUT ENERGY PRECISION 4
Info: CROSSTERM ENERGY INCLUDED IN DIHEDRAL
Info: TIMING OUTPUT STEPS    50000
Info: PRESSURE OUTPUT STEPS  5000
Info: LANGEVIN DYNAMICS ACTIVE
Info: LANGEVIN TEMPERATURE   300
Info: LANGEVIN USING BBK INTEGRATOR
Info: LANGEVIN DAMPING COEFFICIENT IS 1 INVERSE PS
Info: LANGEVIN DYNAMICS APPLIED TO HYDROGENS
Info: LANGEVIN PISTON PRESSURE CONTROL ACTIVE
Info:        TARGET PRESSURE IS 1.01325 BAR
Info:     OSCILLATION PERIOD IS 50 FS
Info:             DECAY TIME IS 25 FS
Info:     PISTON TEMPERATURE IS 300 K
Info:       PRESSURE CONTROL IS GROUP-BASED
Info:    INITIAL STRAIN RATE IS 0 0 0
Info:       CELL FLUCTUATION IS ISOTROPIC
Info: PARTICLE MESH EWALD (PME) ACTIVE
Info: PME TOLERANCE               1e-06
Info: PME EWALD COEFFICIENT       0.348832
Info: PME INTERPOLATION ORDER     4
Info: PME GRID DIMENSIONS         48 44 48
Info: PME MAXIMUM GRID SPACING    1
Info: FULL ELECTROSTATIC EVALUATION FREQUENCY      2
Info: USING VERLET I (r-RESPA) MTS SCHEME.
Info: C1 SPLITTING OF LONG RANGE ELECTROSTATICS
Info: PLACING ATOMS IN PATCHES BY HYDROGEN GROUPS
Info: RIGID BONDS TO HYDROGEN : ALL
Info:         ERROR TOLERANCE : 1e-08
Info:          MAX ITERATIONS : 100
Info: RIGID WATER USING SETTLE ALGORITHM
Info: RANDOM NUMBER SEED     1741309214
Info: USE HYDROGEN BONDS?    NO
Info: Using AMBER format force field!
Info: AMBER PARM FILE        mobley_1034539.prmtop
Info: COORDINATE PDB         mobley_1034539.pdb
Info: Exclusions will be read from PARM file!
Info: SCNB (VDW SCALING)     2
Info: USING ARITHMETIC MEAN TO COMBINE L-J SIGMA PARAMETERS
Info: SUMMARY OF PARAMETERS:
Info: 7 BONDS
Info: 8 ANGLES
Info:   8 HARMONIC
Info:   0 COSINE-BASED
Info: 3 DIHEDRAL
Info: 0 IMPROPER
Info: 0 CROSSTERM
Info: 0 VDW
Info: 15 VDW_PAIRS
Info: 0 NBTHOLE_PAIRS
Info: STRUCTURE SUMMARY:
Info: 6229 ATOMS
Info: 6230 BONDS
Info: 36 ANGLES
Info: 61 DIHEDRALS
Info: 0 IMPROPERS
Info: 0 CROSSTERMS
Info: 6312 EXCLUSIONS
Info: 6211 RIGID BONDS
Info: 12476 DEGREES OF FREEDOM
Info: 2087 HYDROGEN GROUPS
Info: 3 ATOMS IN LARGEST HYDROGEN GROUP
Info: 2087 MIGRATION GROUPS
Info: 3 ATOMS IN LARGEST MIGRATION GROUP
Info: TOTAL MASS = 37636 amu
Info: TOTAL CHARGE = -8.3819e-09 e
Info: MASS DENSITY = 0.728569 g/cm^3
Info: ATOM DENSITY = 0.0726151 atoms/A^3
Info: ADDED 0 IMPLICIT EXCLUSIONS
Info: NONBONDED TABLE R-SQUARED SPACING: 0.0625
Info: NONBONDED TABLE SIZE: 705 POINTS
Info: REMOVING COM VELOCITY 0.0450505 0.00506317 -0.0418194
TCL: Minimizing for 2000 steps
ETITLE: TS BOND ANGLE DIHED IMPRP ELECT VDW BOUNDARY MISC KINETIC TOTAL TEMP POTENTIAL TOTAL3 TEMPAVG PRESSURE GPRESSURE VOLUME PRESSAVG GPRESSAVG
ENERGY: 0 1.1345 1.2902 6.1213 0.0000 -19312.3830 2152.4091 0.0000 0.0000 0.0000 -17151.4280 0.0000 -17151.4280 -17151.4280 0.0000 11177.8763 -15786.5907 85781.0648 11177.8763 -15786.5907
ENERGY: 400 2.6997 1.9691 6.2592 0.0000 -26496.8283 4049.0089 0.0000 0.0000 0.0000 -22436.8914 0.0000 -22436.8914 -22436.8914 0.0000 16800.4940 16949.0939 85781.0648 16800.4940 16949.0939
ENERGY: 800 1.7113 1.2669 5.3022 0.0000 -27684.6066 4620.0758 0.0000 0.0000 0.0000 -23056.2504 0.0000 -23056.2504 -23056.2504 0.0000 18988.0886 19120.9908 85781.0648 18988.0886 19120.9908
ENERGY: 1200 1.2564 0.5084 4.2722 0.0000 -28139.5513 4752.4105 0.0000 0.0000 0.0000 -23381.1038 0.0000 -23381.1038 -23381.1038 0.0000 19462.5353 19587.9787 85781.0648 19462.5353 19587.9787
ENERGY: 1600 0.9197 0.6074 3.8184 0.0000 -28472.6018 4889.4330 0.0000 0.0000 0.0000 -23577.8233 0.0000 -23577.8233 -23577.8233 0.0000 20029.6414 20144.9985 85781.0648 20029.6414 20144.9985
ENERGY: 2000 0.6599 0.3820 4.3009 0.0000 -28622.2674 4937.6791 0.0000 0.0000 0.0000 -23679.2457 0.0000 -23679.2457 -23679.2457 0.0000 20240.5751 20354.8299 85781.0648 20240.5751 20354.8299
TCL: Exiting due to exit command.
Info: NAMD 3.0.1 for Linux-x86_64-multicore
Info: Please visit http://www.ks.uiuc.edu/Research/namd/
Info: for updates, documentation, and support information.
Info: Please cite Phillips et al., J. Chem. Phys. 153:044130 (2020) doi:10.1063/5.0014475
Info: in all publications reporting results obtained with NAMD.
Info: Based on Charm++/Converse 80000 for multicore-linux-x86_64-gcc
Info: Built Mon Oct 14 11:11:06 CDT 2024 by dhardy on athine.ks.uiuc.edu
Info: 1 NAMD  3.0.1  Linux-x86_64-multicore  16    k062  z5358697
Info: Running on 16 processors, 1 nodes, 1 physical nodes.
Info: CPU topology information available.
Info: Charm++/Converse parallel runtime startup completed at 0.00980555 s
Info: 1043.46 MB of memory in use based on /proc/self/stat
Info: Configuration file is mobley_1034539_equil.namd
Info: Working in the current directory /srv/scratch/z5358697/prod_prep/1034539
TCL: Running 25000 steps at 30 kelvin.
TCL: Suspending until startup complete.
Info: SIMULATION PARAMETERS:
Info: TIMESTEP               2
Info: NUMBER OF STEPS        0
Info: STEPS PER CYCLE        10
Info: PERIODIC CELL BASIS 1  44.675 0 0
Info: PERIODIC CELL BASIS 2  0 43.47 0
Info: PERIODIC CELL BASIS 3  0 0 44.171
Info: PERIODIC CELL CENTER   0 0 0
Info: WRAPPING WATERS AROUND PERIODIC BOUNDARIES ON OUTPUT.
Info: WRAPPING ALL CLUSTERS AROUND PERIODIC BOUNDARIES ON OUTPUT.
Info: FIRST LDB TIMESTEP     50
Info: LAST LDB TIMESTEP     -1
Info: HOM BACKGROUND SCALING 1
Info: PME BACKGROUND SCALING 1
Info: MIN ATOMS PER PATCH    40
Info: EMPTY PATCH LOAD       40 ATOMS
Info: INITIAL TEMPERATURE    300
Info: CENTER OF MASS MOVING INITIALLY? NO
Info: DIELECTRIC             1
Info: EXCLUDE                SCALED ONE-FOUR
Info: 1-4 ELECTROSTATICS SCALED BY 0.833333
Info: MODIFIED 1-4 VDW PARAMETERS WILL BE USED
Info: DCD FILENAME           mobley_1034539_equil.dcd
Info: DCD FREQUENCY          5000
Info: DCD FIRST STEP         5000
Info: DCD FILE WILL CONTAIN UNIT CELL DATA
Info: XST FILENAME           mobley_1034539_equil.xst
Info: XST FREQUENCY          5000
Info: NO VELOCITY DCD OUTPUT
Info: NO FORCE DCD OUTPUT
Info: OUTPUT FILENAME        mobley_1034539_equil
Info: BINARY OUTPUT FILES WILL BE USED
Info: RESTART FILENAME       mobley_1034539_equil.restart
Info: RESTART FREQUENCY      5000
Info: BINARY RESTART FILES WILL BE USED
Info: CUTOFF                 9
Info: PAIRLIST DISTANCE      11
Info: PAIRLIST SHRINK RATE   0.01
Info: PAIRLIST GROW RATE     0.01
Info: PAIRLIST TRIGGER       0.3
Info: PAIRLISTS PER CYCLE    2
Info: PAIRLISTS ENABLED
Info: MARGIN                 8
Info: HYDROGEN GROUP CUTOFF  2.5
Info: PATCH DIMENSION        21.5
Info: ENERGY OUTPUT STEPS    5000
Info: ENERGY EVALUATION STEPS    5000
Info: OUTPUT ENERGY PRECISION 4
Info: CROSSTERM ENERGY INCLUDED IN DIHEDRAL
Info: TIMING OUTPUT STEPS    50000
Info: PRESSURE OUTPUT STEPS  5000
Info: LANGEVIN DYNAMICS ACTIVE
Info: LANGEVIN TEMPERATURE   30
Info: LANGEVIN USING BBK INTEGRATOR
Info: LANGEVIN DAMPING COEFFICIENT IS 1 INVERSE PS
Info: LANGEVIN DYNAMICS APPLIED TO HYDROGENS
Info: LANGEVIN PISTON PRESSURE CONTROL ACTIVE
Info:        TARGET PRESSURE IS 1.01325 BAR
Info:     OSCILLATION PERIOD IS 50 FS
Info:             DECAY TIME IS 25 FS
Info:     PISTON TEMPERATURE IS 300 K
Info:       PRESSURE CONTROL IS GROUP-BASED
Info:    INITIAL STRAIN RATE IS 0 0 0
Info:       CELL FLUCTUATION IS ISOTROPIC
Info: PARTICLE MESH EWALD (PME) ACTIVE
Info: PME TOLERANCE               1e-06
Info: PME EWALD COEFFICIENT       0.348832
Info: PME INTERPOLATION ORDER     4
Info: PME GRID DIMENSIONS         48 44 48
Info: PME MAXIMUM GRID SPACING    1
Info: FULL ELECTROSTATIC EVALUATION FREQUENCY      2
Info: USING VERLET I (r-RESPA) MTS SCHEME.
Info: C1 SPLITTING OF LONG RANGE ELECTROSTATICS
Info: PLACING ATOMS IN PATCHES BY HYDROGEN GROUPS
Info: RIGID BONDS TO HYDROGEN : ALL
Info:         ERROR TOLERANCE : 1e-08
Info:          MAX ITERATIONS : 100
Info: RIGID WATER USING SETTLE ALGORITHM
Info: RANDOM NUMBER SEED     1741309244
Info: USE HYDROGEN BONDS?    NO
Info: Using AMBER format force field!
Info: AMBER PARM FILE        mobley_1034539.prmtop
Info: COORDINATE PDB         mobley_1034539.pdb
Info: Exclusions will be read from PARM file!
Info: SCNB (VDW SCALING)     2
Info: USING ARITHMETIC MEAN TO COMBINE L-J SIGMA PARAMETERS
Info: BINARY COORDINATES     mobley_1034539_min.coor
Info: SUMMARY OF PARAMETERS:
Info: 7 BONDS
Info: 8 ANGLES
Info:   8 HARMONIC
Info:   0 COSINE-BASED
Info: 3 DIHEDRAL
Info: 0 IMPROPER
Info: 0 CROSSTERM
Info: 0 VDW
Info: 15 VDW_PAIRS
Info: 0 NBTHOLE_PAIRS
Info: STRUCTURE SUMMARY:
Info: 6229 ATOMS
Info: 6230 BONDS
Info: 36 ANGLES
Info: 61 DIHEDRALS
Info: 0 IMPROPERS
Info: 0 CROSSTERMS
Info: 6312 EXCLUSIONS
Info: 6211 RIGID BONDS
Info: 12476 DEGREES OF FREEDOM
Info: 2087 HYDROGEN GROUPS
Info: 3 ATOMS IN LARGEST HYDROGEN GROUP
Info: 2087 MIGRATION GROUPS
Info: 3 ATOMS IN LARGEST MIGRATION GROUP
Info: TOTAL MASS = 37636 amu
Info: TOTAL CHARGE = -8.3819e-09 e
Info: MASS DENSITY = 0.728569 g/cm^3
Info: ATOM DENSITY = 0.0726151 atoms/A^3
Info: ADDED 0 IMPLICIT EXCLUSIONS
Info: NONBONDED TABLE R-SQUARED SPACING: 0.0625
Info: NONBONDED TABLE SIZE: 705 POINTS
Info: REMOVING COM VELOCITY 0.0700964 0.0311093 -0.186864
TCL: Running for 25000 steps
ETITLE: TS BOND ANGLE DIHED IMPRP ELECT VDW BOUNDARY MISC KINETIC TOTAL TEMP POTENTIAL TOTAL3 TEMPAVG PRESSURE GPRESSURE VOLUME PRESSAVG GPRESSAVG
ENERGY: 0 0.6599 0.3820 4.3009 0.0000 -28622.2674 4937.6791 0.0000 0.0000 3724.2610 -19954.9846 300.4382 -23679.2457 -19954.2069 300.4382 289.6255 323.7469 85781.0648 289.6255 323.7469
ENERGY: 5000 1.9932 1.2074 4.9203 0.0000 -29644.5361 4988.4193 0.0000 0.0000 382.5366 -24265.4593 30.8594 -24647.9959 -24264.5373 47.3717 -742.8680 -675.9635 61004.7173 -0.7384 -0.7024
ENERGY: 10000 1.1543 0.7020 5.4005 0.0000 -29804.7591 5089.1820 0.0000 0.0000 371.5406 -24336.7797 29.9724 -24708.3204 -24335.8970 30.5349 -385.7502 -328.1437 60704.0880 1.9751 2.2178
ENERGY: 15000 0.9699 1.2030 4.2119 0.0000 -29959.7028 5218.9637 0.0000 0.0000 372.0331 -24362.3211 30.0121 -24734.3542 -24361.3265 30.1672 183.3227 240.1982 60268.9397 2.5071 2.5580
ENERGY: 20000 1.4891 1.0442 5.2564 0.0000 -29784.0988 5024.1211 0.0000 0.0000 373.5174 -24378.6705 30.1319 -24752.1879 -24377.8218 30.2124 -672.9273 -616.3994 60575.7699 3.1603 3.2744
ENERGY: 25000 1.6162 0.5138 4.7189 0.0000 -29803.5227 5019.6780 0.0000 0.0000 374.0259 -24402.9698 30.1729 -24776.9957 -24402.0187 30.2136 -760.3384 -703.7092 60705.2376 4.6934 4.7948
TCL: Running 25000 steps at 60 kelvin.
TCL: Setting parameter langevinTemp to 60
TCL: Running for 25000 steps
ETITLE: TS BOND ANGLE DIHED IMPRP ELECT VDW BOUNDARY MISC KINETIC TOTAL TEMP POTENTIAL TOTAL3 TEMPAVG PRESSURE GPRESSURE VOLUME PRESSAVG GPRESSAVG
ENERGY: 25000 1.6162 0.5138 4.7189 0.0000 -29803.5227 5019.6780 0.0000 0.0000 373.8399 -24403.1558 30.1579 -24776.9957 -24402.3680 30.1579 -769.2352 -703.7600 60705.2376 -769.2352 -703.7600
ENERGY: 30000 1.2056 2.4310 5.2176 0.0000 -29569.1404 5082.3374 0.0000 0.0000 750.1070 -23727.8419 60.5115 -24477.9489 -23726.3030 57.4101 43.9174 101.4368 60638.9841 7.0265 7.1830
ENERGY: 35000 1.6657 1.7074 4.6234 0.0000 -29399.8728 4842.1382 0.0000 0.0000 759.5888 -23790.1493 61.2764 -24549.7381 -23787.7740 60.6343 -966.6742 -923.0435 60697.8134 2.9368 2.9436
ENERGY: 40000 1.3629 1.0152 5.5676 0.0000 -29628.9962 5041.9284 0.0000 0.0000 728.3206 -23850.8016 58.7540 -24579.1222 -23848.7644 60.1129 -137.0756 -80.6828 60162.8332 1.2423 1.1527
ENERGY: 45000 1.5969 1.3267 5.3418 0.0000 -29777.9925 5179.2209 0.0000 0.0000 775.8854 -23814.6208 62.5911 -24590.5062 -23812.9530 60.1614 362.2060 421.1890 60189.1146 0.3393 0.2708
ENERGY: 50000 1.1686 1.4830 4.8552 0.0000 -29703.5707 5086.1126 0.0000 0.0000 754.1750 -23855.7763 60.8397 -24609.9513 -23854.3601 60.1085 -68.7151 -4.7963 60313.6257 6.6296 6.3847
TCL: Running 25000 steps at 90 kelvin.
TCL: Setting parameter langevinTemp to 90
TCL: Running for 25000 steps
ETITLE: TS BOND ANGLE DIHED IMPRP ELECT VDW BOUNDARY MISC KINETIC TOTAL TEMP POTENTIAL TOTAL3 TEMPAVG PRESSURE GPRESSURE VOLUME PRESSAVG GPRESSAVG
ENERGY: 50000 1.1686 1.4830 4.8552 0.0000 -29703.5707 5086.1126 0.0000 0.0000 753.7890 -23856.1623 60.8086 -24609.9513 -23854.5515 60.8086 -63.6987 -5.1227 60313.6257 -63.6987 -5.1227
ENERGY: 55000 2.8298 1.5177 5.9987 0.0000 -29074.3408 4857.3345 0.0000 0.0000 1104.5259 -23102.1342 89.1027 -24206.6601 -23099.3872 87.0406 -347.5391 -270.3394 60949.6332 1.7327 1.7432
ENERGY: 60000 2.1765 1.8103 5.0825 0.0000 -29448.4145 5161.2170 0.0000 0.0000 1125.7990 -23152.3291 90.8188 -24278.1281 -23150.4216 90.5502 815.9350 894.5750 60238.0547 -0.0327 -0.1853
ENERGY: 65000 3.2204 2.4734 5.7989 0.0000 -29241.6659 4921.8855 0.0000 0.0000 1111.4009 -23196.8867 89.6573 -24308.2876 -23194.7582 90.2100 -246.2270 -203.3459 60679.4774 0.0771 -0.3738
ENERGY: 70000 2.3136 1.3672 5.3764 0.0000 -29393.3283 5025.0349 0.0000 0.0000 1113.3899 -23245.8463 89.8178 -24359.2363 -23243.1008 90.0622 171.9969 191.3794 60294.4976 5.5886 5.5198
ENERGY: 75000 2.1251 1.4300 4.5726 0.0000 -29409.8012 5017.0809 0.0000 0.0000 1103.1141 -23281.4785 88.9888 -24384.5926 -23278.7732 90.5006 -5.5271 68.9754 60397.0798 4.1846 4.4209
TCL: Running 25000 steps at 120 kelvin.
TCL: Setting parameter langevinTemp to 120
TCL: Running for 25000 steps
ETITLE: TS BOND ANGLE DIHED IMPRP ELECT VDW BOUNDARY MISC KINETIC TOTAL TEMP POTENTIAL TOTAL3 TEMPAVG PRESSURE GPRESSURE VOLUME PRESSAVG GPRESSAVG
ENERGY: 75000 2.1251 1.4300 4.5726 0.0000 -29409.8012 5017.0809 0.0000 0.0000 1102.5664 -23282.0262 88.9446 -24384.5926 -23279.6981 88.9446 15.6630 68.9346 60397.0798 15.6630 68.9346
ENERGY: 80000 3.3534 2.4580 6.1313 0.0000 -28790.9993 4822.8579 0.0000 0.0000 1496.4538 -22459.7449 120.7198 -23956.1987 -22457.6893 116.5976 99.4267 151.0513 60418.1007 2.7462 2.6466
ENERGY: 85000 1.9866 2.2540 5.6000 0.0000 -28657.5559 4694.5768 0.0000 0.0000 1456.4471 -22496.6913 117.4924 -23953.1385 -22493.2083 119.7967 -449.9328 -384.4510 60748.7385 5.4753 5.2002
ENERGY: 90000 3.2740 2.2026 6.5078 0.0000 -28783.2461 4817.7261 0.0000 0.0000 1506.2683 -22447.2673 121.5115 -23953.5356 -22444.7705 120.4891 155.7184 193.5753 60449.2040 4.6273 4.4173
ENERGY: 95000 2.5485 1.6896 8.2147 0.0000 -28876.7462 4839.7106 0.0000 0.0000 1483.7360 -22540.8467 119.6938 -24024.5828 -22537.9989 119.8834 0.9790 56.6374 60632.8519 3.2466 3.1469
ENERGY: 100000 2.2025 1.2874 7.4757 0.0000 -28907.5987 4883.0218 0.0000 0.0000 1488.4494 -22525.1619 120.0740 -24013.6113 -22521.6144 120.1773 260.2143 302.9428 60361.6517 -0.1952 -0.2800
TCL: Running 25000 steps at 150 kelvin.
TCL: Setting parameter langevinTemp to 150
TCL: Running for 25000 steps
ETITLE: TS BOND ANGLE DIHED IMPRP ELECT VDW BOUNDARY MISC KINETIC TOTAL TEMP POTENTIAL TOTAL3 TEMPAVG PRESSURE GPRESSURE VOLUME PRESSAVG GPRESSAVG
ENERGY: 100000 2.2025 1.2874 7.4757 0.0000 -28907.5987 4883.0218 0.0000 0.0000 1487.7018 -22525.9096 120.0137 -24013.6113 -22523.4852 120.0137 247.1846 302.7708 60361.6517 247.1846 302.7708
ENERGY: 105000 4.4661 1.6148 5.9138 0.0000 -28173.5623 4605.4187 0.0000 0.0000 1859.6397 -21696.5093 150.0182 -23556.1490 -21691.7232 147.3311 -197.2222 -142.3136 60993.1657 0.2844 0.4967
ENERGY: 110000 4.9010 3.2398 8.7479 0.0000 -28076.2886 4506.4399 0.0000 0.0000 1868.7822 -21684.1779 150.7557 -23552.9601 -21678.4109 150.8816 -584.3452 -525.1858 61276.4738 3.1276 3.4922
ENERGY: 115000 3.0745 3.3080 9.5721 0.0000 -28330.5763 4668.7731 0.0000 0.0000 1844.9358 -21800.9128 148.8320 -23645.8486 -21796.2132 149.6531 213.7686 262.3257 60303.0826 0.7113 0.6397
ENERGY: 120000 4.8239 4.7650 7.5402 0.0000 -28383.8423 4686.1107 0.0000 0.0000 1854.3528 -21826.2497 149.5917 -23680.6025 -21823.1097 148.7757 -32.6415 19.7663 60738.7926 0.5288 0.8105
ENERGY: 125000 1.3979 1.4888 8.5905 0.0000 -28334.8054 4679.2348 0.0000 0.0000 1824.5800 -21819.5133 147.1899 -23644.0934 -21814.3735 150.5071 56.1714 120.2522 60764.4491 1.4070 1.3925
TCL: Running 50000 steps at 180 kelvin.
TCL: Setting parameter langevinTemp to 180
TCL: Running for 50000 steps
ETITLE: TS BOND ANGLE DIHED IMPRP ELECT VDW BOUNDARY MISC KINETIC TOTAL TEMP POTENTIAL TOTAL3 TEMPAVG PRESSURE GPRESSURE VOLUME PRESSAVG GPRESSAVG
ENERGY: 125000 1.3979 1.4888 8.5905 0.0000 -28334.8054 4679.2348 0.0000 0.0000 1823.6405 -21820.4529 147.1141 -23644.0934 -21816.8357 147.1141 64.5813 121.0216 60764.4491 64.5813 121.0216
ENERGY: 135000 3.2784 5.5336 5.8049 0.0000 -27522.7348 4395.8519 0.0000 0.0000 2203.8699 -20908.3961 177.7874 -23112.2660 -20901.5882 179.5153 -199.4283 -113.6837 61104.3437 0.1116 0.2973
ENERGY: 145000 3.6988 2.8762 7.6274 0.0000 -27530.6066 4422.6309 0.0000 0.0000 2212.6859 -20881.0874 178.4986 -23093.7733 -20877.0140 180.0001 -80.3731 -19.2169 61305.2179 5.2106 4.7366
ENERGY: 155000 3.1257 2.5400 7.8269 0.0000 -27527.8628 4404.7331 0.0000 0.0000 2272.3564 -20837.2806 183.3122 -23109.6371 -20831.8596 179.5133 -109.8127 -52.8615 61048.2169 4.5456 4.4204
ENERGY: 165000 4.1784 3.9562 8.8923 0.0000 -27489.8405 4334.0121 0.0000 0.0000 2275.4431 -20863.3584 183.5612 -23138.8015 -20858.1780 180.6904 -485.1295 -398.2371 61292.8697 5.2912 5.2151
ENERGY: 175000 1.6464 5.1625 8.8784 0.0000 -27603.8794 4474.9220 0.0000 0.0000 2165.8768 -20947.3935 174.7225 -23113.2702 -20941.2890 179.4743 85.1817 135.8007 61039.6737 -0.4889 -0.9795
TCL: Running 50000 steps at 210 kelvin.
TCL: Setting parameter langevinTemp to 210
TCL: Running for 50000 steps
ETITLE: TS BOND ANGLE DIHED IMPRP ELECT VDW BOUNDARY MISC KINETIC TOTAL TEMP POTENTIAL TOTAL3 TEMPAVG PRESSURE GPRESSURE VOLUME PRESSAVG GPRESSAVG
ENERGY: 175000 1.6464 5.1625 8.8784 0.0000 -27603.8794 4474.9220 0.0000 0.0000 2164.7775 -20948.4927 174.6338 -23113.2702 -20944.5222 174.6338 78.5286 136.4002 61039.6737 78.5286 136.4002
ENERGY: 185000 4.8791 7.4885 5.7414 0.0000 -26242.8451 3985.6561 0.0000 0.0000 2579.9456 -19659.1344 208.1256 -22239.0800 -19651.7597 208.7662 -184.7360 -111.3390 60904.5237 6.4619 6.3959
ENERGY: 195000 8.2844 5.4417 8.8114 0.0000 -26288.6912 4040.6518 0.0000 0.0000 2581.5726 -19643.9293 208.2569 -22225.5020 -19638.1102 211.4960 116.1804 168.0636 60621.0321 -0.2042 0.2619
ENERGY: 205000 6.7324 5.5101 7.1913 0.0000 -26124.1890 3907.8235 0.0000 0.0000 2639.9591 -19556.9726 212.9670 -22196.9318 -19551.0793 209.1945 -373.5028 -299.1013 60726.2771 3.7703 3.9511
ENERGY: 215000 6.0852 4.6477 8.0840 0.0000 -26252.4366 4029.5655 0.0000 0.0000 2628.6696 -19575.3845 212.0562 -22204.0541 -19567.6996 209.0365 92.0187 166.5125 60967.9339 2.9281 2.7541
ENERGY: 225000 2.5922 2.3820 7.7604 0.0000 -26260.2706 4043.4743 0.0000 0.0000 2559.8228 -19644.2388 206.5023 -22204.0617 -19639.9051 210.2011 154.5568 214.9524 60830.9870 2.0045 2.6389
TCL: Running 50000 steps at 240 kelvin.
TCL: Setting parameter langevinTemp to 240
TCL: Running for 50000 steps
ETITLE: TS BOND ANGLE DIHED IMPRP ELECT VDW BOUNDARY MISC KINETIC TOTAL TEMP POTENTIAL TOTAL3 TEMPAVG PRESSURE GPRESSURE VOLUME PRESSAVG GPRESSAVG
ENERGY: 225000 2.5922 2.3820 7.7604 0.0000 -26260.2706 4043.4743 0.0000 0.0000 2558.5246 -19645.5370 206.3976 -22204.0617 -19640.8392 206.3976 134.9027 214.0970 60830.9870 134.9027 214.0970
ENERGY: 235000 6.7854 6.0701 7.5512 0.0000 -24636.3756 3368.3937 0.0000 0.0000 2991.6700 -18255.9052 241.3397 -21247.5752 -18250.5013 240.6685 -1053.8742 -961.5036 61975.9222 2.5349 2.3245
ENERGY: 245000 6.0736 4.4514 7.9686 0.0000 -24784.9310 3573.5132 0.0000 0.0000 3024.7366 -18168.1876 244.0072 -21192.9243 -18159.9515 240.7883 -104.8836 -50.3307 61635.2266 10.0084 9.9148
ENERGY: 255000 4.7959 3.3382 7.2675 0.0000 -24908.0063 3607.9438 0.0000 0.0000 2995.3424 -18289.3185 241.6359 -21284.6609 -18282.1571 241.2801 -400.5926 -278.6170 62108.4962 3.4648 3.8057
ENERGY: 265000 4.1291 3.6010 12.2695 0.0000 -24738.1936 3500.6891 0.0000 0.0000 3005.2538 -18212.2511 242.4355 -21217.5049 -18204.8939 241.1848 -420.5240 -356.6784 61794.0800 3.9139 3.2427
ENERGY: 275000 9.8203 3.3476 8.8320 0.0000 -25091.9595 3732.5085 0.0000 0.0000 2952.9132 -18384.5379 238.2131 -21337.4511 -18379.4059 238.5736 153.3862 230.6959 61777.0028 1.2292 1.0234
TCL: Running 50000 steps at 270 kelvin.
TCL: Setting parameter langevinTemp to 270
TCL: Running for 50000 steps
ETITLE: TS BOND ANGLE DIHED IMPRP ELECT VDW BOUNDARY MISC KINETIC TOTAL TEMP POTENTIAL TOTAL3 TEMPAVG PRESSURE GPRESSURE VOLUME PRESSAVG GPRESSAVG
ENERGY: 275000 9.8203 3.3476 8.8320 0.0000 -25091.9595 3732.5085 0.0000 0.0000 2951.4353 -18386.0158 238.0939 -21337.4511 -18381.9955 238.0939 151.5475 230.5782 61777.0028 151.5475 230.5782
ENERGY: 285000 3.2347 6.0662 6.4750 0.0000 -23694.7076 3301.8405 0.0000 0.0000 3355.1975 -17021.8938 270.6656 -20377.0913 -17014.8956 271.3126 -72.6707 4.6141 62841.6741 2.9655 3.0198
ENERGY: 295000 5.1227 5.5137 9.9570 0.0000 -23788.7978 3306.0418 0.0000 0.0000 3364.8505 -17097.3120 271.4443 -20462.1625 -17090.3149 268.4506 181.7880 238.4372 61968.9759 -0.0817 -0.2521
ENERGY: 305000 4.7043 2.6873 6.9495 0.0000 -23579.6125 3176.4236 0.0000 0.0000 3464.3725 -16924.4754 279.4728 -20388.8478 -16917.4797 272.2798 -465.4390 -403.6497 62963.0212 4.2266 4.3108
ENERGY: 315000 7.4418 4.1561 8.3964 0.0000 -23717.6959 3233.5872 0.0000 0.0000 3429.7600 -17034.3543 276.6806 -20464.1142 -17025.6886 271.1815 -301.7160 -256.1523 62435.2709 4.8793 5.0034
ENERGY: 325000 7.9762 3.3552 10.4678 0.0000 -23718.1600 3294.8465 0.0000 0.0000 3310.9322 -17090.5821 267.0947 -20401.5143 -17081.0359 269.8243 -63.1659 7.6752 62575.8275 2.3652 2.7511
TCL: Running 1000000 steps at 300 kelvin.
TCL: Setting parameter langevinTemp to 300
TCL: Running for 1000000 steps
ETITLE: TS BOND ANGLE DIHED IMPRP ELECT VDW BOUNDARY MISC KINETIC TOTAL TEMP POTENTIAL TOTAL3 TEMPAVG PRESSURE GPRESSURE VOLUME PRESSAVG GPRESSAVG
ENERGY: 325000 7.9762 3.3552 10.4678 0.0000 -23718.1600 3294.8465 0.0000 0.0000 3309.3172 -17092.1971 266.9644 -20401.5143 -17087.5814 266.9644 -74.0142 8.5146 62575.8275 -74.0142 8.5146
ENERGY: 525000 7.1371 4.3322 9.7097 0.0000 -22626.5903 3124.2465 0.0000 0.0000 3655.7095 -15825.4552 294.9081 -19481.1648 -15817.3998 300.3108 473.3503 535.3992 63600.8634 5.7624 6.1348
ENERGY: 725000 7.7211 2.4538 10.0431 0.0000 -22671.6952 3169.5927 0.0000 0.0000 3689.2509 -15792.6335 297.6139 -19481.8844 -15789.6514 301.9775 462.0400 550.2121 63909.6951 3.6389 3.2771
ENERGY: 925000 2.8129 1.8006 9.5003 0.0000 -22753.6665 3152.8359 0.0000 0.0000 3712.2874 -15874.4294 299.4723 -19586.7168 -15864.4877 300.1688 326.6075 452.1228 63898.1873 6.2375 6.2457
ENERGY: 1125000 7.7688 7.4257 8.8417 0.0000 -22832.2466 3188.8102 0.0000 0.0000 3744.7782 -15874.6219 302.0933 -19619.4001 -15870.0938 299.5853 411.2646 491.9941 64014.9915 -0.1240 -0.5713
ENERGY: 1325000 11.0596 5.1777 9.8412 0.0000 -22667.8237 3100.6182 0.0000 0.0000 3705.6387 -15835.4883 298.9359 -19541.1269 -15828.1306 301.0068 247.5999 315.0186 64381.6783 4.6855 4.1022
TCL: Exiting due to exit command.
