Info: SIMULATION PARAMETERS:
Info: TIMESTEP               2
Info: NUMBER OF STEPS        0
Info: STEPS PER CYCLE        10
Info: PERIODIC CELL BASIS 1  31.0753 0 0
Info: PERIODIC CELL BASIS 2  0 31.4528 0
Info: PERIODIC CELL BASIS 3  0 0 31.73
Info: PERIODIC CELL CENTER   0 0 0
Info: WRAPPING WATERS AROUND PERIODIC BOUNDARIES ON OUTPUT.
Info: WRAPPING ALL CLUSTERS AROUND PERIODIC BOUNDARIES ON OUTPUT.
Info: FIRST LDB TIMESTEP     50
Info: LAST LDB TIMESTEP     -1
Info: HOM BACKGROUND SCALING 1
Info: PME BACKGROUND SCALING 1
Info: MIN ATOMS PER PATCH    40
Info: EMPTY PATCH LOAD       40 ATOMS
Info: VELOCITY FILE          mobley_8578590_equil.vel
Info: CENTER OF MASS MOVING INITIALLY? NO
Info: DIELECTRIC             1
Info: EXCLUDE                SCALED ONE-FOUR
Info: 1-4 ELECTROSTATICS SCALED BY 0.833333
Info: MODIFIED 1-4 VDW PARAMETERS WILL BE USED
Info: DCD FILENAME           mobley_8578590_prod.dcd
Info: DCD FREQUENCY          100000
Info: DCD FIRST STEP         100000
Info: DCD FILE WILL CONTAIN UNIT CELL DATA
Info: XST FILENAME           mobley_8578590_prod.xst
Info: XST FREQUENCY          100000
Info: NO VELOCITY DCD OUTPUT
Info: NO FORCE DCD OUTPUT
Info: OUTPUT FILENAME        mobley_8578590_prod
Info: BINARY OUTPUT FILES WILL BE USED
Info: RESTART FILENAME       mobley_8578590_prod.restart
Info: RESTART FREQUENCY      100000
Info: BINARY RESTART FILES WILL BE USED
Info: CUTOFF                 9
Info: PAIRLIST DISTANCE      11
Info: PAIRLIST SHRINK RATE   0.01
Info: PAIRLIST GROW RATE     0.01
Info: PAIRLIST TRIGGER       0.3
Info: PAIRLISTS PER CYCLE    2
Info: PAIRLISTS ENABLED
Info: MARGIN                 2
Info: HYDROGEN GROUP CUTOFF  2.5
Info: PATCH DIMENSION        15.5
Info: ENERGY OUTPUT STEPS    100000
Info: ENERGY EVALUATION STEPS    100000
Info: OUTPUT ENERGY PRECISION 4
Info: CROSSTERM ENERGY INCLUDED IN DIHEDRAL
Info: TIMING OUTPUT STEPS    1000000
Info: PRESSURE OUTPUT STEPS  100000
Info: ALCHEMICAL FEP ON
Info: FEP CURRENT LAMBDA VALUE     0
Info: FEP COMPARISON LAMBDA VALUE  0.05
Info: FEP INTRA-ALCHEMICAL NON-BONDED INTERACTIONS WILL BE RETAINED
Info: FEP INTRA-ALCHEMICAL BONDED INTERACTIONS WILL BE RETAINED
Info: FEP VDW SHIFTING COEFFICIENT 5
Info: FEP ELEC. ACTIVE FOR ANNIHILATED PARTICLES BETWEEN LAMBDA = 0 AND LAMBDA = 0.5
Info: FEP ELEC. ACTIVE FOR EXNIHILATED PARTICLES BETWEEN LAMBDA = 0.5 AND LAMBDA = 1
Info: FEP VDW ACTIVE FOR ANNIHILATED PARTICLES BETWEEN LAMBDA = 0 AND LAMBDA = 1
Info: FEP VDW ACTIVE FOR EXNIHILATED PARTICLES BETWEEN LAMBDA = 0 AND LAMBDA = 1
Info: FEP BOND ACTIVE FOR ANNIHILATED PARTICLES BETWEEN LAMBDA = 1 AND LAMBDA = 1
Info: FEP BOND ACTIVE FOR EXNIHILATED PARTICLES BETWEEN LAMBDA = 0 AND LAMBDA = 0
Info: LANGEVIN DYNAMICS ACTIVE
Info: LANGEVIN TEMPERATURE   300
Info: LANGEVIN USING BBK INTEGRATOR
Info: LANGEVIN DAMPING COEFFICIENT IS 1 INVERSE PS
Info: LANGEVIN DYNAMICS APPLIED TO HYDROGENS
Info: LANGEVIN PISTON PRESSURE CONTROL ACTIVE
Info:        TARGET PRESSURE IS 1.01325 BAR
Info:     OSCILLATION PERIOD IS 50 FS
Info:             DECAY TIME IS 25 FS
Info:     PISTON TEMPERATURE IS 300 K
Info:       PRESSURE CONTROL IS GROUP-BASED
Info:    INITIAL STRAIN RATE IS 0.000575777 0.000575777 0.000575777
Info:       CELL FLUCTUATION IS ISOTROPIC
Info: PARTICLE MESH EWALD (PME) ACTIVE
Info: PME TOLERANCE               1e-06
Info: PME EWALD COEFFICIENT       0.348832
Info: PME INTERPOLATION ORDER     4
Info: PME GRID DIMENSIONS         32 32 32
Info: PME MAXIMUM GRID SPACING    1
Info: PME CALCULATION WILL BE PERFORMED ON GPU
Info: FULL ELECTROSTATIC EVALUATION FREQUENCY      2
Info: USING VERLET I (r-RESPA) MTS SCHEME.
Info: C1 SPLITTING OF LONG RANGE ELECTROSTATICS
Info: PLACING ATOMS IN PATCHES BY HYDROGEN GROUPS
Info: RIGID BONDS TO HYDROGEN : ALL
Info:         ERROR TOLERANCE : 1e-08
Info:          MAX ITERATIONS : 100
Info: RIGID WATER USING SETTLE ALGORITHM
Info: RANDOM NUMBER SEED     1742513574
Info: USE HYDROGEN BONDS?    NO
Info: Using AMBER format force field!
Info: AMBER PARM FILE        mobley_8578590.prmtop
Info: COORDINATE PDB         mobley_8578590.pdb
Info: Exclusions will be read from PARM file!
Info: SCNB (VDW SCALING)     2
Info: USING ARITHMETIC MEAN TO COMBINE L-J SIGMA PARAMETERS
Info: BINARY COORDINATES     mobley_8578590_equil.coor
Info: SUMMARY OF PARAMETERS:
Info: 5 BONDS
Info: 4 ANGLES
Info:   4 HARMONIC
Info:   0 COSINE-BASED
Info: 2 DIHEDRAL
Info: 0 IMPROPER
Info: 0 CROSSTERM
Info: 0 VDW
Info: 21 VDW_PAIRS
Info: 0 NBTHOLE_PAIRS
Info: To read alchdata from file: mobley_8578590.pdb
Info: To read alchflag data from column: 5
Info: STRUCTURE SUMMARY:
Info: 2959 ATOMS
Info: 2958 BONDS
Info: 15 ANGLES
Info: 15 DIHEDRALS
Info: 0 IMPROPERS
Info: 0 CROSSTERMS
Info: 2985 EXCLUSIONS
Info: 2955 RIGID BONDS
Info: ALCH: 0 ATOMS TO DISAPPEAR IN FINAL STATE
Info: ALCH: 10 ATOMS TO APPEAR IN FINAL STATE
Info: 5922 DEGREES OF FREEDOM
Info: 987 HYDROGEN GROUPS
Info: 4 ATOMS IN LARGEST HYDROGEN GROUP
Info: 987 MIGRATION GROUPS
Info: 4 ATOMS IN LARGEST MIGRATION GROUP
Info: TOTAL MASS = 17787.9 amu
Info: TOTAL CHARGE = 0.00030005 e
Info: MASS DENSITY = 0.952441 g/cm^3
Info: ATOM DENSITY = 0.0954114 atoms/A^3
Info: ADDED 0 IMPLICIT EXCLUSIONS
Info: NONBONDED TABLE R-SQUARED SPACING: 0.0625
Info: NONBONDED TABLE SIZE: 705 POINTS
Info: REDUCING NUMBER OF PATCHES TO IMPROVE LOAD BALANCE
Info: REMOVING COM VELOCITY -0.0145662 -0.0412599 0.0695189
Info: Use 3D box decompostion in PME FFT.
Info: Updated CUDA force table with 4096 elements.
Info: Updated CUDA LJ table with 6 x 6 elements.
Info: Found 13 unique exclusion lists needing 20 bytes
TCL: Running for 1500000 steps
ETITLE: TS BOND ANGLE DIHED IMPRP ELECT VDW BOUNDARY MISC KINETIC TOTAL TEMP POTENTIAL TOTALAVG TEMPAVG PRESSURE GPRESSURE VOLUME PRESSAVG GPRESSAVG
ENERGY: 0 0.2090 2.5326 0.1903 0.0000 -10675.8599 1367.4576 0.0000 0.0000 1798.3454 -7507.1251 305.6294 -9305.4704 -7507.1251 305.6294 -927.1406 -845.2098 31013.0807 -927.1406 -845.2098
ENERGY: 300000 1.6961 2.8836 0.3788 0.0000 -10764.7571 1454.2944 0.0000 0.0000 1824.0059 -7481.4983 309.9904 -9305.5042 -7528.5772 305.7022 -201.6334 -91.7181 30804.0247 -445.6516 -368.8345
ENERGY: 600000 0.9616 6.1698 0.2476 0.0000 -10598.1745 1322.9122 0.0000 0.0000 1785.5688 -7482.3147 303.4580 -9267.8835 -7523.9175 305.0744 -1078.9896 -945.7960 30771.3620 -381.4015 -295.3093
ENERGY: 900000 0.3387 5.7102 0.6929 0.0000 -10646.9222 1317.7081 0.0000 0.0000 1800.2778 -7522.1945 305.9578 -9322.4723 -7554.1064 303.1683 -1085.1317 -990.5595 30847.2976 -538.0675 -456.0353
ENERGY: 1200000 0.9019 3.8846 0.1671 0.0000 -10718.7360 1339.8168 0.0000 0.0000 1803.8211 -7570.1445 306.5600 -9373.9656 -7547.7027 303.1048 -1062.7715 -994.8586 30408.2572 -535.5721 -465.5813
ENERGY: 1500000 0.1602 2.0345 0.1396 0.0000 -10706.2442 1402.7419 0.0000 0.0000 1760.7234 -7540.4446 299.2355 -9301.1680 -7549.7067 301.8505 -166.5138 -73.4601 30334.5077 -471.1175 -399.3014
TCL: Running FEP window   2: Lambda1 0.05   Lambda2 0.1    [dLambda 0.05  ]
TCL: Setting parameter firsttimestep to 0
TCL: Setting parameter alchLambda to 0.05
Info: NONBONDED TABLE R-SQUARED SPACING: 0.0625
Info: NONBONDED TABLE SIZE: 705 POINTS
TCL: Setting parameter alchLambda2 to 0.1
Info: NONBONDED TABLE R-SQUARED SPACING: 0.0625
Info: NONBONDED TABLE SIZE: 705 POINTS
TCL: Running for 1500000 steps
ETITLE: TS BOND ANGLE DIHED IMPRP ELECT VDW BOUNDARY MISC KINETIC TOTAL TEMP POTENTIAL TOTALAVG TEMPAVG PRESSURE GPRESSURE VOLUME PRESSAVG GPRESSAVG
ENERGY: 0 0.1602 2.0345 0.1396 0.0000 -10706.2429 1404.6480 0.0000 0.0000 1759.8078 -7539.4528 299.0799 -9299.2606 -7539.4528 299.0799 -148.4960 -70.4587 30334.5077 -148.4960 -70.4587
ENERGY: 300000 0.8576 3.7075 0.3159 0.0000 -10880.4458 1489.5443 0.0000 0.0000 1767.4399 -7618.5805 300.3770 -9386.0205 -7549.0918 298.3175 130.4197 194.8173 30188.7493 -65.4284 -15.7640
ENERGY: 600000 1.9121 5.4436 2.0007 0.0000 -10649.9140 1353.2661 0.0000 0.0000 1708.3930 -7578.8985 290.3419 -9287.2916 -7553.4099 297.3571 -446.5259 -407.1123 29985.2360 -126.1224 -65.7545
ENERGY: 900000 0.0288 1.8891 1.3889 0.0000 -10748.2260 1461.0365 0.0000 0.0000 1776.1011 -7507.7815 301.8489 -9283.8826 -7553.7458 298.8761 350.9900 483.4118 29886.7312 66.3257 132.0131
ENERGY: 1200000 0.1250 2.1263 0.2450 0.0000 -10729.0809 1427.8425 0.0000 0.0000 1740.0414 -7558.7008 295.7206 -9298.7421 -7553.9975 298.7865 -172.9472 -158.4931 30760.1408 63.6137 118.7454
ENERGY: 1500000 0.0958 4.8883 0.1449 0.0000 -10668.5151 1366.7335 0.0000 0.0000 1761.3874 -7535.2651 299.3484 -9296.6525 -7551.7967 299.0293 -393.4383 -354.9345 30226.7723 23.0568 78.9537
TCL: Running FEP window   3: Lambda1 0.1    Lambda2 0.15000000000000002 [dLambda 0.05000000000000002]
TCL: Setting parameter firsttimestep to 0
TCL: Setting parameter alchLambda to 0.1
Info: NONBONDED TABLE R-SQUARED SPACING: 0.0625
Info: NONBONDED TABLE SIZE: 705 POINTS
TCL: Setting parameter alchLambda2 to 0.15000000000000002
Info: NONBONDED TABLE R-SQUARED SPACING: 0.0625
Info: NONBONDED TABLE SIZE: 705 POINTS
TCL: Running for 1500000 steps
ETITLE: TS BOND ANGLE DIHED IMPRP ELECT VDW BOUNDARY MISC KINETIC TOTAL TEMP POTENTIAL TOTALAVG TEMPAVG PRESSURE GPRESSURE VOLUME PRESSAVG GPRESSAVG
ENERGY: 0 0.0958 4.8883 0.1449 0.0000 -10668.5163 1367.8603 0.0000 0.0000 1760.5111 -7535.0158 299.1994 -9295.5269 -7535.0158 299.1994 -434.4460 -347.0631 30226.7723 -434.4460 -347.0631
ENERGY: 300000 1.6251 4.1374 1.7053 0.0000 -10837.4487 1457.0116 0.0000 0.0000 1761.0226 -7611.9467 299.2863 -9372.9693 -7556.1275 301.7632 191.4564 230.6137 29879.8587 -266.2858 -203.4548
ENERGY: 600000 1.3395 4.8936 1.0227 0.0000 -10757.6884 1475.6152 0.0000 0.0000 1804.1915 -7470.6259 306.6229 -9274.8174 -7533.0057 299.9897 340.9767 369.7750 30676.6494 -32.4002 34.9011
ENERGY: 900000 0.1343 6.5018 0.1791 0.0000 -10806.7380 1456.9902 0.0000 0.0000 1802.2342 -7540.6983 306.2903 -9342.9326 -7538.5969 300.0915 27.8720 78.0392 30212.5556 3.9468 63.3390
ENERGY: 1200000 1.4574 5.7413 0.6642 0.0000 -10777.8346 1384.6370 0.0000 0.0000 1777.2514 -7608.0834 302.0444 -9385.3348 -7526.6048 301.6379 -801.6565 -728.5489 30717.3950 29.5100 89.5628
ENERGY: 1500000 0.5418 7.9143 0.3044 0.0000 -10786.4756 1485.7221 0.0000 0.0000 1766.1770 -7525.8159 300.1623 -9291.9929 -7515.2453 302.6357 554.5220 534.2450 30058.4098 76.4478 135.2374
TCL: Running FEP window   4: Lambda1 0.15000000000000002 Lambda2 0.2    [dLambda 0.04999999999999999]
TCL: Setting parameter firsttimestep to 0
TCL: Setting parameter alchLambda to 0.15000000000000002
Info: NONBONDED TABLE R-SQUARED SPACING: 0.0625
Info: NONBONDED TABLE SIZE: 705 POINTS
TCL: Setting parameter alchLambda2 to 0.2
Info: NONBONDED TABLE R-SQUARED SPACING: 0.0625
Info: NONBONDED TABLE SIZE: 705 POINTS
TCL: Running for 1500000 steps
ETITLE: TS BOND ANGLE DIHED IMPRP ELECT VDW BOUNDARY MISC KINETIC TOTAL TEMP POTENTIAL TOTALAVG TEMPAVG PRESSURE GPRESSURE VOLUME PRESSAVG GPRESSAVG
ENERGY: 0 0.5418 7.9143 0.3044 0.0000 -10786.4740 1485.7126 0.0000 0.0000 1765.3068 -7526.6941 300.0145 -9292.0009 -7526.6941 300.0145 462.1322 535.4347 30058.4098 462.1322 535.4347
ENERGY: 300000 0.3908 2.8943 0.1131 0.0000 -10645.1776 1305.9193 0.0000 0.0000 1705.7951 -7630.0649 289.9004 -9335.8601 -7535.2951 299.8811 -1388.9651 -1326.3824 30792.4347 -248.0627 -196.3164
ENERGY: 600000 0.5576 6.3787 1.1594 0.0000 -10819.0948 1485.2310 0.0000 0.0000 1792.8714 -7532.8967 304.6991 -9325.7681 -7519.5199 302.0556 321.0242 397.5045 30005.1612 -169.4984 -102.1943
ENERGY: 900000 1.1494 3.8737 1.0103 0.0000 -10804.3705 1487.0728 0.0000 0.0000 1756.5643 -7554.7000 298.5287 -9311.2643 -7525.5969 301.4743 106.1513 215.8370 30590.2249 8.7991 84.2087
ENERGY: 1200000 1.0684 3.6081 2.0802 0.0000 -10558.0663 1331.5080 0.0000 0.0000 1770.7992 -7449.0025 300.9479 -9219.8016 -7523.0979 301.1382 -1092.9005 -1070.2072 31304.9500 -100.2831 -26.1581
ENERGY: 1500000 1.9855 5.0892 0.9860 0.0000 -10716.6163 1415.5298 0.0000 0.0000 1745.1163 -7547.9095 296.5831 -9293.0258 -7518.7553 300.8896 -36.1149 46.3477 30272.5917 -150.6563 -80.3763
TCL: Running FEP window   5: Lambda1 0.2    Lambda2 0.25   [dLambda 0.04999999999999999]
TCL: Setting parameter firsttimestep to 0
TCL: Setting parameter alchLambda to 0.2
Info: NONBONDED TABLE R-SQUARED SPACING: 0.0625
Info: NONBONDED TABLE SIZE: 705 POINTS
TCL: Setting parameter alchLambda2 to 0.25
Info: NONBONDED TABLE R-SQUARED SPACING: 0.0625
Info: NONBONDED TABLE SIZE: 705 POINTS
TCL: Running for 1500000 steps
ETITLE: TS BOND ANGLE DIHED IMPRP ELECT VDW BOUNDARY MISC KINETIC TOTAL TEMP POTENTIAL TOTALAVG TEMPAVG PRESSURE GPRESSURE VOLUME PRESSAVG GPRESSAVG
ENERGY: 0 1.9855 5.0892 0.9860 0.0000 -10716.6166 1415.6898 0.0000 0.0000 1744.2575 -7548.6086 296.4371 -9292.8661 -7548.6086 296.4371 -41.5194 49.0208 30272.5917 -41.5194 49.0208
ENERGY: 300000 2.0055 5.3071 1.5249 0.0000 -10749.3765 1447.4824 0.0000 0.0000 1737.5713 -7555.4853 295.3008 -9293.0566 -7490.7824 304.1318 76.5938 151.2962 30253.0139 182.7414 240.9505
ENERGY: 600000 0.4015 3.5454 1.2136 0.0000 -10729.5140 1405.0465 0.0000 0.0000 1722.0562 -7597.2508 292.6640 -9319.3071 -7534.5653 299.9769 -414.4623 -397.6347 30373.4274 22.0042 78.0943
ENERGY: 900000 1.5831 1.6675 0.7449 0.0000 -10629.4486 1410.6047 0.0000 0.0000 1770.0179 -7444.8304 300.8151 -9214.8483 -7540.4603 299.1417 -334.3278 -270.6932 30755.4086 58.5738 110.1002
ENERGY: 1200000 0.6578 4.1488 0.6441 0.0000 -10603.7656 1361.3821 0.0000 0.0000 1780.5504 -7456.3824 302.6051 -9236.9328 -7535.6336 299.1038 -531.7476 -435.7618 30591.2497 -126.2016 -75.0543
ENERGY: 1500000 0.7577 2.8164 0.3389 0.0000 -10925.8131 1501.9810 0.0000 0.0000 1726.0593 -7693.8598 293.3443 -9419.9191 -7546.0552 299.4430 51.7115 96.2703 30313.9737 -102.6583 -51.6285
TCL: Running FEP window   6: Lambda1 0.25   Lambda2 0.3    [dLambda 0.04999999999999999]
TCL: Setting parameter firsttimestep to 0
TCL: Setting parameter alchLambda to 0.25
Info: NONBONDED TABLE R-SQUARED SPACING: 0.0625
Info: NONBONDED TABLE SIZE: 705 POINTS
TCL: Setting parameter alchLambda2 to 0.3
Info: NONBONDED TABLE R-SQUARED SPACING: 0.0625
Info: NONBONDED TABLE SIZE: 705 POINTS
TCL: Running for 1500000 steps
ETITLE: TS BOND ANGLE DIHED IMPRP ELECT VDW BOUNDARY MISC KINETIC TOTAL TEMP POTENTIAL TOTALAVG TEMPAVG PRESSURE GPRESSURE VOLUME PRESSAVG GPRESSAVG
ENERGY: 0 0.7577 2.8164 0.3389 0.0000 -10925.8107 1503.6821 0.0000 0.0000 1725.1690 -7693.0466 293.1930 -9418.2156 -7693.0466 293.1930 45.3471 106.9670 30313.9737 45.3471 106.9670
ENERGY: 300000 0.3619 2.2124 1.3691 0.0000 -10826.2259 1514.1925 0.0000 0.0000 1717.4447 -7590.6453 291.8803 -9308.0900 -7620.3000 295.0175 430.5839 490.4501 30651.8975 -221.4545 -174.3328
ENERGY: 600000 0.2501 5.0446 0.8472 0.0000 -10689.1891 1422.8917 0.0000 0.0000 1801.8522 -7458.3033 306.2254 -9260.1555 -7567.0908 297.7951 -151.6757 -98.7999 30772.7147 -216.1312 -167.6231
ENERGY: 900000 1.4299 3.0792 0.2852 0.0000 -10943.2771 1553.2627 0.0000 0.0000 1738.6714 -7646.5487 295.4878 -9385.2201 -7553.1228 297.7479 982.3894 1009.7018 29790.7568 -25.4713 26.6165
ENERGY: 1200000 0.2271 7.0504 0.1705 0.0000 -10683.5197 1418.6583 0.0000 0.0000 1782.9139 -7474.4997 303.0068 -9257.4136 -7551.5609 297.8422 13.0506 86.4652 30516.7240 -68.9020 -6.5566
ENERGY: 1500000 3.0295 4.0088 0.6039 0.0000 -10766.9432 1426.8329 0.0000 0.0000 1711.5962 -7620.8719 290.8863 -9332.4681 -7548.6585 297.6890 -413.8649 -374.6837 30697.4645 -84.7240 -18.7998
TCL: Running FEP window   7: Lambda1 0.3    Lambda2 0.35   [dLambda 0.04999999999999999]
TCL: Setting parameter firsttimestep to 0
TCL: Setting parameter alchLambda to 0.3
Info: NONBONDED TABLE R-SQUARED SPACING: 0.0625
Info: NONBONDED TABLE SIZE: 705 POINTS
TCL: Setting parameter alchLambda2 to 0.35
Info: NONBONDED TABLE R-SQUARED SPACING: 0.0625
Info: NONBONDED TABLE SIZE: 705 POINTS
TCL: Running for 1500000 steps
ETITLE: TS BOND ANGLE DIHED IMPRP ELECT VDW BOUNDARY MISC KINETIC TOTAL TEMP POTENTIAL TOTALAVG TEMPAVG PRESSURE GPRESSURE VOLUME PRESSAVG GPRESSAVG
ENERGY: 0 3.0295 4.0088 0.6039 0.0000 -10766.9441 1428.3706 0.0000 0.0000 1710.7102 -7620.2211 290.7357 -9330.9313 -7620.2211 290.7357 -440.2657 -361.7078 30697.4645 -440.2657 -361.7078
ENERGY: 300000 2.0248 4.2465 0.2018 0.0000 -10679.3116 1363.2971 0.0000 0.0000 1725.6191 -7583.9222 293.2695 -9309.5413 -7562.7055 297.2756 -596.5267 -557.5649 30129.3933 -148.6851 -69.2582
ENERGY: 600000 0.6123 4.0772 1.5343 0.0000 -10705.3020 1464.7291 0.0000 0.0000 1783.2543 -7451.0948 303.0646 -9234.3491 -7559.9780 297.7069 190.7378 249.2511 30840.4580 -186.8089 -123.1517
ENERGY: 900000 1.6649 6.4931 0.9677 0.0000 -10727.7430 1463.6489 0.0000 0.0000 1782.0460 -7472.9225 302.8593 -9254.9684 -7547.8327 299.8397 410.4757 400.9513 30374.2961 10.2131 59.9533
ENERGY: 1200000 0.2038 2.3037 0.1455 0.0000 -10777.4578 1426.4878 0.0000 0.0000 1782.9100 -7565.4071 303.0061 -9348.3171 -7544.0565 300.7043 -5.6639 -6.1758 30074.1255 -57.5816 -9.7669
ENERGY: 1500000 0.1660 2.7868 0.3756 0.0000 -10586.8144 1344.9889 0.0000 0.0000 1804.8233 -7433.6740 306.7303 -9238.4972 -7532.0358 300.8031 -828.5145 -750.5338 31072.2670 -87.0199 -35.4582
TCL: Running FEP window   8: Lambda1 0.35   Lambda2 0.39999999999999997 [dLambda 0.04999999999999999]
TCL: Setting parameter firsttimestep to 0
TCL: Setting parameter alchLambda to 0.35
Info: NONBONDED TABLE R-SQUARED SPACING: 0.0625
Info: NONBONDED TABLE SIZE: 705 POINTS
TCL: Setting parameter alchLambda2 to 0.39999999999999997
Info: NONBONDED TABLE R-SQUARED SPACING: 0.0625
Info: NONBONDED TABLE SIZE: 705 POINTS
TCL: Running for 1500000 steps
ETITLE: TS BOND ANGLE DIHED IMPRP ELECT VDW BOUNDARY MISC KINETIC TOTAL TEMP POTENTIAL TOTALAVG TEMPAVG PRESSURE GPRESSURE VOLUME PRESSAVG GPRESSAVG
ENERGY: 0 0.1660 2.7868 0.3756 0.0000 -10586.8138 1345.0630 0.0000 0.0000 1803.9222 -7434.5004 306.5771 -9238.4226 -7434.5004 306.5771 -831.0420 -743.8451 31072.2670 -831.0420 -743.8451
ENERGY: 300000 0.5128 5.4049 0.7553 0.0000 -10732.3644 1388.6237 0.0000 0.0000 1769.2139 -7567.8539 300.6785 -9337.0678 -7533.9186 300.8147 -361.8188 -367.2690 30257.7782 -284.3331 -268.4405
ENERGY: 600000 1.6581 5.3368 1.6027 0.0000 -10758.3459 1394.5343 0.0000 0.0000 1739.1283 -7616.0857 295.5654 -9355.2140 -7544.7142 299.1366 -800.9315 -708.4554 30640.1746 -322.7784 -287.8607
ENERGY: 900000 0.2843 2.3260 0.4765 0.0000 -10806.9463 1520.0720 0.0000 0.0000 1787.2070 -7496.5805 303.7364 -9283.7875 -7552.5664 299.8445 694.8391 757.2567 30231.3483 -258.4987 -215.0524
ENERGY: 1200000 0.1493 8.1984 1.1093 0.0000 -10792.5065 1492.3581 0.0000 0.0000 1787.3911 -7503.3003 303.7677 -9290.6914 -7544.5537 300.0876 367.1486 415.1909 30538.1739 -236.2964 -183.2078
ENERGY: 1500000 0.5502 6.4707 1.2831 0.0000 -10635.5221 1332.7245 0.0000 0.0000 1729.7956 -7564.6979 293.9793 -9294.4934 -7539.3248 299.5182 -713.9878 -640.0955 30003.2818 -252.9803 -197.9142
TCL: Running FEP window   9: Lambda1 0.39999999999999997 Lambda2 0.44999999999999996 [dLambda 0.04999999999999999]
TCL: Setting parameter firsttimestep to 0
TCL: Setting parameter alchLambda to 0.39999999999999997
Info: NONBONDED TABLE R-SQUARED SPACING: 0.0625
Info: NONBONDED TABLE SIZE: 705 POINTS
TCL: Setting parameter alchLambda2 to 0.44999999999999996
Info: NONBONDED TABLE R-SQUARED SPACING: 0.0625
Info: NONBONDED TABLE SIZE: 705 POINTS
TCL: Running for 1500000 steps
ETITLE: TS BOND ANGLE DIHED IMPRP ELECT VDW BOUNDARY MISC KINETIC TOTAL TEMP POTENTIAL TOTALAVG TEMPAVG PRESSURE GPRESSURE VOLUME PRESSAVG GPRESSAVG
ENERGY: 0 0.5502 6.4707 1.2831 0.0000 -10635.5218 1332.6832 0.0000 0.0000 1728.9320 -7565.6024 293.8325 -9294.5344 -7565.6024 293.8325 -719.0104 -638.4663 30003.2818 -719.0104 -638.4663
ENERGY: 300000 2.5764 2.4435 0.4258 0.0000 -10822.1869 1447.0547 0.0000 0.0000 1781.6143 -7588.0723 302.7859 -9369.6866 -7550.6969 299.0867 -420.0629 -361.9949 30488.7177 -330.3994 -263.2088
ENERGY: 600000 1.5395 2.2402 1.5573 0.0000 -10703.1200 1368.6999 0.0000 0.0000 1750.4603 -7578.6229 297.4913 -9329.0832 -7534.8330 300.9081 -766.4002 -654.1849 30495.5250 -380.5437 -296.6160
ENERGY: 900000 0.6149 4.9974 0.4351 0.0000 -10746.8187 1399.5818 0.0000 0.0000 1742.9922 -7598.1973 296.2221 -9341.1895 -7544.5115 300.4316 -462.5104 -425.3654 30496.4353 -352.2023 -292.5948
ENERGY: 1200000 0.9522 2.5433 0.2111 0.0000 -10612.0011 1326.3520 0.0000 0.0000 1824.9812 -7456.9613 310.1561 -9281.9425 -7541.9806 299.6501 -865.9905 -817.0678 30752.5144 -246.3345 -186.4512
ENERGY: 1500000 0.6601 5.4729 0.3482 0.0000 -10689.7329 1410.8889 0.0000 0.0000 1778.9342 -7493.4286 302.3304 -9272.3628 -7541.5263 300.6504 -181.1854 -131.3625 30368.8258 -140.7702 -83.9533
TCL: Running FEP window  10: Lambda1 0.44999999999999996 Lambda2 0.49999999999999994 [dLambda 0.04999999999999999]
TCL: Setting parameter firsttimestep to 0
TCL: Setting parameter alchLambda to 0.44999999999999996
Info: NONBONDED TABLE R-SQUARED SPACING: 0.0625
Info: NONBONDED TABLE SIZE: 705 POINTS
TCL: Setting parameter alchLambda2 to 0.49999999999999994
Info: NONBONDED TABLE R-SQUARED SPACING: 0.0625
Info: NONBONDED TABLE SIZE: 705 POINTS
TCL: Running for 1500000 steps
ETITLE: TS BOND ANGLE DIHED IMPRP ELECT VDW BOUNDARY MISC KINETIC TOTAL TEMP POTENTIAL TOTALAVG TEMPAVG PRESSURE GPRESSURE VOLUME PRESSAVG GPRESSAVG
ENERGY: 0 0.6601 5.4729 0.3482 0.0000 -10689.7334 1410.6727 0.0000 0.0000 1778.0406 -7494.5389 302.1786 -9272.5795 -7494.5389 302.1786 -208.7092 -129.6002 30368.8258 -208.7092 -129.6002
ENERGY: 300000 0.4344 4.0820 0.6364 0.0000 -10860.4719 1478.6526 0.0000 0.0000 1773.0404 -7603.6261 301.3288 -9376.6665 -7556.0881 299.7753 18.1371 80.9334 30354.8930 -97.5184 -5.3005
ENERGY: 600000 1.0171 3.1168 1.3306 0.0000 -10742.6276 1466.7272 0.0000 0.0000 1773.7898 -7496.6462 301.4561 -9270.4360 -7553.6890 300.2648 267.8898 312.6978 30447.2152 -164.5818 -66.1293
ENERGY: 900000 0.3829 2.3748 0.6175 0.0000 -10767.8562 1432.1281 0.0000 0.0000 1832.6814 -7499.6714 311.4648 -9332.3528 -7535.1201 302.1480 -192.7819 -159.8892 30631.8802 -145.9514 -76.5194
ENERGY: 1200000 0.3628 4.8066 1.2540 0.0000 -10731.0166 1486.6968 0.0000 0.0000 1774.6086 -7463.2879 301.5953 -9237.8965 -7527.5496 302.2218 212.8157 276.8472 31076.0240 -105.2625 -45.8661
ENERGY: 1500000 1.8549 5.0997 0.3793 0.0000 -10830.6320 1470.6280 0.0000 0.0000 1760.0359 -7592.6342 299.1187 -9352.6700 -7528.6182 301.4381 67.8502 142.5497 30238.9438 -99.9926 -42.4912
TCL: Running FEP window  11: Lambda1 0.49999999999999994 Lambda2 0.5499999999999999 [dLambda 0.04999999999999999]
TCL: Setting parameter firsttimestep to 0
TCL: Setting parameter alchLambda to 0.49999999999999994
Info: NONBONDED TABLE R-SQUARED SPACING: 0.0625
Info: NONBONDED TABLE SIZE: 705 POINTS
TCL: Setting parameter alchLambda2 to 0.5499999999999999
Info: NONBONDED TABLE R-SQUARED SPACING: 0.0625
Info: NONBONDED TABLE SIZE: 705 POINTS
TCL: Running for 1500000 steps
ETITLE: TS BOND ANGLE DIHED IMPRP ELECT VDW BOUNDARY MISC KINETIC TOTAL TEMP POTENTIAL TOTALAVG TEMPAVG PRESSURE GPRESSURE VOLUME PRESSAVG GPRESSAVG
ENERGY: 0 1.8549 5.0997 0.3793 0.0000 -10830.6333 1470.8701 0.0000 0.0000 1759.1691 -7593.2602 298.9714 -9352.4293 -7593.2602 298.9714 67.6362 152.0303 30238.9438 67.6362 152.0303
ENERGY: 300000 0.8580 2.2779 0.4849 0.0000 -10765.0381 1442.3880 0.0000 0.0000 1773.2813 -7545.7481 301.3697 -9319.0294 -7530.5518 300.2403 42.6732 95.5046 30165.8949 12.5588 86.2685
ENERGY: 600000 1.5428 5.1739 0.8709 0.0000 -10650.8407 1346.4511 0.0000 0.0000 1797.5591 -7499.2428 305.4957 -9296.8019 -7525.1544 300.7689 -851.4051 -832.4898 30757.8934 -355.8107 -289.9202
ENERGY: 900000 0.2437 7.7623 0.7971 0.0000 -10718.5755 1425.5319 0.0000 0.0000 1768.3535 -7515.8870 300.5322 -9284.2405 -7514.1618 301.4479 -172.1320 -49.6585 30388.0204 -233.9286 -162.2470
ENERGY: 1200000 0.4932 6.6794 0.9226 0.0000 -10802.7499 1483.0357 0.0000 0.0000 1764.5753 -7547.0437 299.8901 -9311.6190 -7511.5326 301.7237 247.1626 303.8172 30501.0107 -181.3939 -118.8032
ENERGY: 1500000 0.3266 1.8076 1.5148 0.0000 -10665.8579 1409.4537 0.0000 0.0000 1821.8984 -7430.8568 309.6322 -9252.7552 -7503.7390 302.5286 -135.1221 -110.3534 30483.5728 -121.3620 -66.9573
TCL: Running FEP window  12: Lambda1 0.5499999999999999 Lambda2 0.6    [dLambda 0.050000000000000044]
TCL: Setting parameter firsttimestep to 0
TCL: Setting parameter alchLambda to 0.5499999999999999
Info: NONBONDED TABLE R-SQUARED SPACING: 0.0625
Info: NONBONDED TABLE SIZE: 705 POINTS
TCL: Setting parameter alchLambda2 to 0.6
Info: NONBONDED TABLE R-SQUARED SPACING: 0.0625
Info: NONBONDED TABLE SIZE: 705 POINTS
TCL: Running for 1500000 steps
ETITLE: TS BOND ANGLE DIHED IMPRP ELECT VDW BOUNDARY MISC KINETIC TOTAL TEMP POTENTIAL TOTALAVG TEMPAVG PRESSURE GPRESSURE VOLUME PRESSAVG GPRESSAVG
ENERGY: 0 0.3266 1.8076 1.5148 0.0000 -10665.8367 1409.5557 0.0000 0.0000 1820.9815 -7431.6505 309.4764 -9252.6320 -7431.6505 309.4764 -188.8914 -106.4709 30483.5728 -188.8914 -106.4709
ENERGY: 300000 0.4382 5.1340 0.1627 0.0000 -10757.9899 1416.3022 0.0000 0.0000 1798.9662 -7536.9866 305.7349 -9335.9528 -7515.6859 303.7067 -32.7139 8.9446 30156.3811 -388.3885 -319.2228
ENERGY: 600000 1.0873 8.2190 0.3294 0.0000 -10650.2047 1355.1544 0.0000 0.0000 1722.0578 -7563.3569 292.6643 -9285.4147 -7541.6257 300.8754 -745.8849 -660.6528 30742.3792 -350.2369 -277.5886
ENERGY: 900000 0.5389 4.6696 0.3356 0.0000 -10843.0139 1534.5437 0.0000 0.0000 1811.5027 -7491.4234 307.8655 -9302.9261 -7529.6178 300.5647 701.9629 791.4421 30508.1169 -60.8663 6.8251
ENERGY: 1200000 0.8425 3.5936 0.3944 0.0000 -10808.5541 1481.6593 0.0000 0.0000 1742.5332 -7579.5311 296.1441 -9322.0642 -7530.5461 300.6041 21.6330 97.0210 30695.5315 -160.9899 -92.7571
ENERGY: 1500000 0.7755 4.3853 0.3582 0.0000 -10704.9175 1432.9275 0.0000 0.0000 1726.4636 -7540.0074 293.4130 -9266.4710 -7530.0170 301.0236 -72.1551 1.9486 30699.7510 -183.8576 -115.7404
TCL: Running FEP window  13: Lambda1 0.6    Lambda2 0.65   [dLambda 0.050000000000000044]
TCL: Setting parameter firsttimestep to 0
TCL: Setting parameter alchLambda to 0.6
Info: NONBONDED TABLE R-SQUARED SPACING: 0.0625
Info: NONBONDED TABLE SIZE: 705 POINTS
TCL: Setting parameter alchLambda2 to 0.65
Info: NONBONDED TABLE R-SQUARED SPACING: 0.0625
Info: NONBONDED TABLE SIZE: 705 POINTS
TCL: Running for 1500000 steps
ETITLE: TS BOND ANGLE DIHED IMPRP ELECT VDW BOUNDARY MISC KINETIC TOTAL TEMP POTENTIAL TOTALAVG TEMPAVG PRESSURE GPRESSURE VOLUME PRESSAVG GPRESSAVG
ENERGY: 0 0.7755 4.3853 0.3582 0.0000 -10705.0524 1432.8728 0.0000 0.0000 1725.6210 -7541.0395 293.2698 -9266.6605 -7541.0395 293.2698 -57.6761 8.4565 30699.7510 -57.6761 8.4565
ENERGY: 300000 0.9896 7.6364 0.9645 0.0000 -10801.4327 1443.1770 0.0000 0.0000 1771.3609 -7577.3043 301.0433 -9348.6651 -7551.0585 300.5785 -189.5900 -19.8048 30188.9495 -110.3282 -9.8023
ENERGY: 600000 1.0936 4.6840 0.2465 0.0000 -10879.7789 1523.6049 0.0000 0.0000 1772.9101 -7577.2399 301.3066 -9350.1500 -7543.8324 302.9490 405.1777 439.8719 30249.7639 47.0294 119.9267
ENERGY: 900000 0.7196 3.9349 0.6230 0.0000 -10596.0313 1385.6799 0.0000 0.0000 1754.7390 -7450.3349 298.2185 -9205.0739 -7513.4923 302.6506 -289.3008 -187.2445 30512.9418 27.1076 91.8045
ENERGY: 1200000 0.9298 2.4980 0.3372 0.0000 -10798.6894 1473.3895 0.0000 0.0000 1808.7301 -7512.8048 307.3943 -9321.5349 -7516.1471 302.5823 143.2171 247.4887 30464.1898 -33.4604 37.7750
ENERGY: 1500000 1.1296 7.0798 0.3788 0.0000 -10795.4513 1463.6396 0.0000 0.0000 1770.9407 -7552.2827 300.9719 -9323.2234 -7529.0931 301.4028 149.3582 215.0669 30052.3339 -60.9054 3.6911
TCL: Running FEP window  14: Lambda1 0.65   Lambda2 0.7000000000000001 [dLambda 0.050000000000000044]
TCL: Setting parameter firsttimestep to 0
TCL: Setting parameter alchLambda to 0.65
Info: NONBONDED TABLE R-SQUARED SPACING: 0.0625
Info: NONBONDED TABLE SIZE: 705 POINTS
TCL: Setting parameter alchLambda2 to 0.7000000000000001
Info: NONBONDED TABLE R-SQUARED SPACING: 0.0625
Info: NONBONDED TABLE SIZE: 705 POINTS
TCL: Running for 1500000 steps
ETITLE: TS BOND ANGLE DIHED IMPRP ELECT VDW BOUNDARY MISC KINETIC TOTAL TEMP POTENTIAL TOTALAVG TEMPAVG PRESSURE GPRESSURE VOLUME PRESSAVG GPRESSAVG
ENERGY: 0 1.1296 7.0798 0.3788 0.0000 -10796.4511 1463.1099 0.0000 0.0000 1770.0795 -7554.6736 300.8256 -9324.7530 -7554.6736 300.8256 123.4808 211.6762 30052.3339 123.4808 211.6762
ENERGY: 300000 0.7528 3.3354 1.4589 0.0000 -10810.1836 1488.0961 0.0000 0.0000 1845.2026 -7471.3377 313.5928 -9316.5404 -7540.5739 304.7659 361.7404 469.4894 30162.5488 378.5413 452.9928
ENERGY: 600000 0.2215 4.3356 0.4310 0.0000 -10673.3100 1344.5487 0.0000 0.0000 1753.7209 -7570.0524 298.0454 -9323.7732 -7548.0879 300.4487 -917.8468 -813.0907 30658.0733 -8.6544 76.9668
ENERGY: 900000 0.4233 3.9072 0.8715 0.0000 -10810.8216 1394.2843 0.0000 0.0000 1742.7814 -7668.5539 296.1862 -9411.3353 -7558.0274 300.0356 -740.4665 -653.4626 30741.9226 -6.5338 78.3413
ENERGY: 1200000 1.0605 5.1163 0.1428 0.0000 -10772.4724 1407.5943 0.0000 0.0000 1793.8924 -7564.6662 304.8726 -9358.5586 -7557.1599 300.9046 -194.5449 -147.5342 30133.7660 -57.3089 23.5515
ENERGY: 1500000 0.8458 5.0394 0.3537 0.0000 -10952.7827 1575.4356 0.0000 0.0000 1738.5977 -7632.5104 295.4752 -9371.1081 -7553.3269 300.9536 806.5118 850.4331 30359.4498 43.9350 120.9034
TCL: Running FEP window  15: Lambda1 0.7000000000000001 Lambda2 0.7500000000000001 [dLambda 0.050000000000000044]
TCL: Setting parameter firsttimestep to 0
TCL: Setting parameter alchLambda to 0.7000000000000001
Info: NONBONDED TABLE R-SQUARED SPACING: 0.0625
Info: NONBONDED TABLE SIZE: 705 POINTS
TCL: Setting parameter alchLambda2 to 0.7500000000000001
Info: NONBONDED TABLE R-SQUARED SPACING: 0.0625
Info: NONBONDED TABLE SIZE: 705 POINTS
TCL: Running for 1500000 steps
ETITLE: TS BOND ANGLE DIHED IMPRP ELECT VDW BOUNDARY MISC KINETIC TOTAL TEMP POTENTIAL TOTALAVG TEMPAVG PRESSURE GPRESSURE VOLUME PRESSAVG GPRESSAVG
ENERGY: 0 0.8458 5.0394 0.3537 0.0000 -10953.7589 1575.9480 0.0000 0.0000 1737.6968 -7633.8752 295.3221 -9371.5720 -7633.8752 295.3221 776.4395 862.2144 30359.4498 776.4395 862.2144
ENERGY: 300000 0.9766 3.6529 0.1360 0.0000 -10740.2969 1504.4998 0.0000 0.0000 1783.0834 -7447.9483 303.0356 -9231.0316 -7550.3637 297.9455 544.0389 611.6203 31065.2651 204.8149 235.5500
ENERGY: 600000 0.6214 4.8020 0.3966 0.0000 -10819.1796 1440.4202 0.0000 0.0000 1861.1879 -7511.7514 316.3095 -9372.9393 -7534.3003 301.4150 -112.2705 -38.7415 30525.8184 -101.9052 -58.3320
ENERGY: 900000 0.7356 4.1166 0.5188 0.0000 -10795.7534 1480.4968 0.0000 0.0000 1733.3872 -7576.4983 294.5897 -9309.8855 -7535.8619 300.1601 513.5918 548.3333 29939.9049 -66.3489 -23.1472
ENERGY: 1200000 2.1474 4.9546 0.3218 0.0000 -10682.5244 1358.0471 0.0000 0.0000 1746.0964 -7570.9570 296.7496 -9317.0535 -7533.8355 301.4537 -964.9690 -885.5050 30780.1242 -132.7817 -85.1024
ENERGY: 1500000 0.2613 4.1743 0.6058 0.0000 -10715.1301 1419.0297 0.0000 0.0000 1766.2687 -7524.7904 300.1779 -9291.0591 -7529.7117 302.0896 -291.9345 -237.3701 30788.0051 -77.3676 -28.6168
TCL: Running FEP window  16: Lambda1 0.7500000000000001 Lambda2 0.8000000000000002 [dLambda 0.050000000000000044]
TCL: Setting parameter firsttimestep to 0
TCL: Setting parameter alchLambda to 0.7500000000000001
Info: NONBONDED TABLE R-SQUARED SPACING: 0.0625
Info: NONBONDED TABLE SIZE: 705 POINTS
TCL: Setting parameter alchLambda2 to 0.8000000000000002
Info: NONBONDED TABLE R-SQUARED SPACING: 0.0625
Info: NONBONDED TABLE SIZE: 705 POINTS
TCL: Running for 1500000 steps
ETITLE: TS BOND ANGLE DIHED IMPRP ELECT VDW BOUNDARY MISC KINETIC TOTAL TEMP POTENTIAL TOTALAVG TEMPAVG PRESSURE GPRESSURE VOLUME PRESSAVG GPRESSAVG
ENERGY: 0 0.2613 4.1743 0.6058 0.0000 -10716.2680 1419.4452 0.0000 0.0000 1765.3722 -7526.4093 300.0256 -9291.7814 -7526.4093 300.0256 -318.1805 -231.5089 30788.0051 -318.1805 -231.5089
ENERGY: 300000 1.2432 6.7079 1.9078 0.0000 -10767.6593 1449.3479 0.0000 0.0000 1785.9556 -7522.4969 303.5237 -9308.4524 -7523.7740 300.4774 43.3506 49.8241 30509.2503 -17.4552 23.5568
ENERGY: 600000 1.4723 4.8249 0.3593 0.0000 -10812.5908 1446.8380 0.0000 0.0000 1778.2853 -7580.8110 302.2202 -9359.0963 -7520.5437 300.7326 -196.1231 -100.0531 30485.7291 -60.2240 -10.8477
ENERGY: 900000 0.1929 5.5339 0.7160 0.0000 -10676.1022 1445.3638 0.0000 0.0000 1797.3151 -7426.9806 305.4543 -9224.2957 -7519.6619 300.8974 342.1271 353.5120 30565.4274 -29.3122 13.6305
ENERGY: 1200000 0.7090 2.4957 0.2133 0.0000 -10820.4844 1492.8532 0.0000 0.0000 1725.9353 -7598.2779 293.3233 -9324.2132 -7536.6013 300.7034 210.1947 228.1164 30785.0404 11.2376 53.5737
ENERGY: 1500000 1.3234 3.1298 0.0400 0.0000 -10840.6739 1541.3639 0.0000 0.0000 1775.0030 -7519.8139 301.6623 -9294.8168 -7534.9853 299.7667 904.3827 916.9832 30451.5601 74.0600 120.4485
TCL: Running FEP window  17: Lambda1 0.8000000000000002 Lambda2 0.8500000000000002 [dLambda 0.050000000000000044]
TCL: Setting parameter firsttimestep to 0
TCL: Setting parameter alchLambda to 0.8000000000000002
Info: NONBONDED TABLE R-SQUARED SPACING: 0.0625
Info: NONBONDED TABLE SIZE: 705 POINTS
TCL: Setting parameter alchLambda2 to 0.8500000000000002
Info: NONBONDED TABLE R-SQUARED SPACING: 0.0625
Info: NONBONDED TABLE SIZE: 705 POINTS
TCL: Running for 1500000 steps
ETITLE: TS BOND ANGLE DIHED IMPRP ELECT VDW BOUNDARY MISC KINETIC TOTAL TEMP POTENTIAL TOTALAVG TEMPAVG PRESSURE GPRESSURE VOLUME PRESSAVG GPRESSAVG
ENERGY: 0 1.3234 3.1298 0.0400 0.0000 -10842.9568 1543.2902 0.0000 0.0000 1774.1165 -7521.0570 301.5117 -9295.1734 -7521.0570 301.5117 859.5661 940.7983 30451.5601 859.5661 940.7983
ENERGY: 300000 0.8164 5.2847 0.2749 0.0000 -10758.0985 1409.9996 0.0000 0.0000 1823.3258 -7518.3972 309.8748 -9341.7229 -7525.4235 304.6684 -382.1700 -391.2711 30794.4498 -63.1603 -8.9322
ENERGY: 600000 0.6586 4.4367 0.9688 0.0000 -10694.0480 1411.6026 0.0000 0.0000 1733.1746 -7543.2067 294.5536 -9276.3813 -7525.7150 303.6287 -222.7621 -135.7186 30677.9058 -131.0863 -64.2935
ENERGY: 900000 1.4253 4.4712 0.2084 0.0000 -10695.8577 1378.9422 0.0000 0.0000 1781.2951 -7529.5154 302.7317 -9310.8105 -7528.5986 303.2297 -601.3162 -540.2618 30492.6211 -126.5570 -60.8289
ENERGY: 1200000 0.0123 4.8691 0.2308 0.0000 -10798.7416 1469.6785 0.0000 0.0000 1714.2936 -7609.6573 291.3447 -9323.9509 -7536.3628 302.0432 290.4999 390.2270 30010.4899 -120.0146 -47.4016
ENERGY: 1500000 1.3626 5.9565 1.8786 0.0000 -10731.4624 1424.0290 0.0000 0.0000 1726.1311 -7572.1047 293.3565 -9298.2358 -7539.0202 301.0915 -285.8592 -234.3362 30719.1350 -143.8339 -71.3689
TCL: Running FEP window  18: Lambda1 0.8500000000000002 Lambda2 0.9000000000000002 [dLambda 0.050000000000000044]
TCL: Setting parameter firsttimestep to 0
TCL: Setting parameter alchLambda to 0.8500000000000002
Info: NONBONDED TABLE R-SQUARED SPACING: 0.0625
Info: NONBONDED TABLE SIZE: 705 POINTS
TCL: Setting parameter alchLambda2 to 0.9000000000000002
Info: NONBONDED TABLE R-SQUARED SPACING: 0.0625
Info: NONBONDED TABLE SIZE: 705 POINTS
TCL: Running for 1500000 steps
ETITLE: TS BOND ANGLE DIHED IMPRP ELECT VDW BOUNDARY MISC KINETIC TOTAL TEMP POTENTIAL TOTALAVG TEMPAVG PRESSURE GPRESSURE VOLUME PRESSAVG GPRESSAVG
ENERGY: 0 1.3626 5.9565 1.8786 0.0000 -10733.6121 1424.3786 0.0000 0.0000 1725.2473 -7574.7885 293.2063 -9300.0358 -7574.7885 293.2063 -322.4722 -228.7350 30719.1350 -322.4722 -228.7350
ENERGY: 300000 0.5548 5.6888 0.3157 0.0000 -11015.3701 1603.0656 0.0000 0.0000 1755.7306 -7650.0147 298.3870 -9405.7453 -7581.2764 296.9351 1125.2720 1175.8764 29970.8686 352.3032 425.5193
ENERGY: 600000 0.7606 5.5634 0.3241 0.0000 -10839.5903 1463.7552 0.0000 0.0000 1762.5449 -7606.6421 299.5451 -9369.1870 -7574.2963 300.5689 -27.5070 -28.2281 30820.9306 173.0174 231.8868
ENERGY: 900000 1.2686 3.4081 0.3009 0.0000 -10735.8637 1376.8146 0.0000 0.0000 1778.1840 -7575.8875 302.2029 -9354.0715 -7582.0395 298.9772 -601.6809 -578.0544 30670.8324 142.3830 196.7477
ENERGY: 1200000 1.6092 2.7283 0.0773 0.0000 -10705.8957 1447.2290 0.0000 0.0000 1776.5842 -7477.6676 301.9311 -9254.2518 -7574.7429 298.7102 -38.3032 30.7876 30866.4971 180.4822 231.1681
ENERGY: 1500000 0.6675 3.6215 0.1069 0.0000 -10797.1180 1463.2091 0.0000 0.0000 1723.1641 -7606.3489 292.8523 -9329.5130 -7571.3537 298.2479 58.4199 181.8155 30154.6823 43.3479 103.7270
TCL: Running FEP window  19: Lambda1 0.9000000000000002 Lambda2 0.9500000000000003 [dLambda 0.050000000000000044]
TCL: Setting parameter firsttimestep to 0
TCL: Setting parameter alchLambda to 0.9000000000000002
Info: NONBONDED TABLE R-SQUARED SPACING: 0.0625
Info: NONBONDED TABLE SIZE: 705 POINTS
TCL: Setting parameter alchLambda2 to 0.9500000000000003
Info: NONBONDED TABLE R-SQUARED SPACING: 0.0625
Info: NONBONDED TABLE SIZE: 705 POINTS
TCL: Running for 1500000 steps
ETITLE: TS BOND ANGLE DIHED IMPRP ELECT VDW BOUNDARY MISC KINETIC TOTAL TEMP POTENTIAL TOTALAVG TEMPAVG PRESSURE GPRESSURE VOLUME PRESSAVG GPRESSAVG
ENERGY: 0 0.6675 3.6215 0.1069 0.0000 -10798.9481 1463.4421 0.0000 0.0000 1722.2603 -7608.8499 292.6987 -9331.1102 -7608.8499 292.6987 96.7084 186.9618 30154.6823 96.7084 186.9618
ENERGY: 300000 0.5079 4.8973 0.0985 0.0000 -10688.8922 1395.7083 0.0000 0.0000 1718.3061 -7569.3741 292.0267 -9287.6802 -7563.6473 298.1246 -485.9046 -424.5897 30696.6847 53.1982 98.9611
ENERGY: 600000 0.8802 3.5564 0.7545 0.0000 -10855.8227 1487.4995 0.0000 0.0000 1748.6151 -7614.5169 297.1777 -9363.1321 -7549.4703 301.0611 151.1631 190.3526 30567.1280 91.0677 138.3359
ENERGY: 900000 0.3656 6.6652 1.6928 0.0000 -10791.6660 1432.3386 0.0000 0.0000 1750.9182 -7599.6856 297.5691 -9350.6038 -7543.9701 301.0730 -195.3474 -117.7453 30099.3282 16.3374 76.9314
ENERGY: 1200000 1.2667 1.8897 0.1457 0.0000 -10775.8236 1429.2815 0.0000 0.0000 1804.2686 -7538.9714 306.6360 -9343.2400 -7544.1507 301.8421 -96.2918 -5.6404 30311.1298 62.4277 125.3786
ENERGY: 1500000 0.5317 4.1011 1.0637 0.0000 -10697.6394 1381.3644 0.0000 0.0000 1752.5201 -7558.0584 297.8414 -9310.5785 -7551.6184 301.4096 -517.1774 -434.1467 30475.0489 -25.8632 42.0154
TCL: Running FEP window  20: Lambda1 0.9500000000000003 Lambda2 1.0    [dLambda 0.04999999999999971]
TCL: Setting parameter firsttimestep to 0
TCL: Setting parameter alchLambda to 0.9500000000000003
Info: NONBONDED TABLE R-SQUARED SPACING: 0.0625
Info: NONBONDED TABLE SIZE: 705 POINTS
TCL: Setting parameter alchLambda2 to 1.0
Info: NONBONDED TABLE R-SQUARED SPACING: 0.0625
Info: NONBONDED TABLE SIZE: 705 POINTS
TCL: Running for 1500000 steps
ETITLE: TS BOND ANGLE DIHED IMPRP ELECT VDW BOUNDARY MISC KINETIC TOTAL TEMP POTENTIAL TOTALAVG TEMPAVG PRESSURE GPRESSURE VOLUME PRESSAVG GPRESSAVG
ENERGY: 0 0.5317 4.1011 1.0637 0.0000 -10699.4122 1381.5642 0.0000 0.0000 1751.6384 -7560.5131 297.6915 -9312.1516 -7560.5131 297.6915 -495.2390 -424.0192 30475.0489 -495.2390 -424.0192
ENERGY: 300000 0.2383 8.1620 0.3866 0.0000 -10808.9271 1482.9037 0.0000 0.0000 1748.3251 -7568.9115 297.1284 -9317.2365 -7569.7568 296.5689 493.6461 507.1125 29927.5948 284.1649 324.5826
ENERGY: 600000 0.0823 3.8607 0.8705 0.0000 -10672.5006 1403.4539 0.0000 0.0000 1771.5686 -7492.6646 301.0786 -9264.2332 -7575.9440 296.8154 -120.8600 -47.5782 30446.5259 147.2924 198.6869
ENERGY: 900000 0.7328 3.5732 0.8076 0.0000 -10608.1168 1358.2223 0.0000 0.0000 1816.8360 -7427.9450 308.7719 -9244.7810 -7562.4278 298.2152 -462.6641 -355.2091 30612.1846 -4.1700 53.8972
ENERGY: 1200000 0.2399 2.3449 0.7294 0.0000 -10746.5296 1415.3178 0.0000 0.0000 1733.2029 -7594.6946 294.5584 -9327.8975 -7573.0143 298.1029 -453.3532 -394.5629 30952.6350 -69.3924 -12.2708
ENERGY: 1500000 0.6195 4.3774 1.4319 0.0000 -10855.6965 1420.6499 0.0000 0.0000 1777.3078 -7651.3100 302.0540 -9428.6179 -7569.8409 298.5764 -129.9100 -40.3760 29835.8087 -54.6320 3.8397
TCL: Exiting due to exit command.
