Info: SIMULATION PARAMETERS:
Info: TIMESTEP               2
Info: NUMBER OF STEPS        0
Info: STEPS PER CYCLE        10
Info: PERIODIC CELL BASIS 1  41.545 0 0
Info: PERIODIC CELL BASIS 2  0 41.628 0
Info: PERIODIC CELL BASIS 3  0 0 42.247
Info: PERIODIC CELL CENTER   0 0 0
Info: WRAPPING WATERS AROUND PERIODIC BOUNDARIES ON OUTPUT.
Info: WRAPPING ALL CLUSTERS AROUND PERIODIC BOUNDARIES ON OUTPUT.
Info: FIRST LDB TIMESTEP     50
Info: LAST LDB TIMESTEP     -1
Info: HOM BACKGROUND SCALING 1
Info: PME BACKGROUND SCALING 1
Info: MIN ATOMS PER PATCH    40
Info: EMPTY PATCH LOAD       40 ATOMS
Info: INITIAL TEMPERATURE    300
Info: CENTER OF MASS MOVING INITIALLY? NO
Info: DIELECTRIC             1
Info: EXCLUDE                SCALED ONE-FOUR
Info: 1-4 ELECTROSTATICS SCALED BY 0.833333
Info: MODIFIED 1-4 VDW PARAMETERS WILL BE USED
Info: DCD FILENAME           mobley_2390199_min.dcd
Info: DCD FREQUENCY          5000
Info: DCD FIRST STEP         5000
Info: DCD FILE WILL CONTAIN UNIT CELL DATA
Info: XST FILENAME           mobley_2390199_min.xst
Info: XST FREQUENCY          5000
Info: NO VELOCITY DCD OUTPUT
Info: NO FORCE DCD OUTPUT
Info: OUTPUT FILENAME        mobley_2390199_min
Info: BINARY OUTPUT FILES WILL BE USED
Info: RESTART FILENAME       mobley_2390199_min.restart
Info: RESTART FREQUENCY      5000
Info: BINARY RESTART FILES WILL BE USED
Info: CUTOFF                 9
Info: PAIRLIST DISTANCE      11
Info: PAIRLIST SHRINK RATE   0.01
Info: PAIRLIST GROW RATE     0.01
Info: PAIRLIST TRIGGER       0.3
Info: PAIRLISTS PER CYCLE    2
Info: PAIRLISTS ENABLED
Info: MARGIN                 8
Info: HYDROGEN GROUP CUTOFF  2.5
Info: PATCH DIMENSION        21.5
Info: ENERGY OUTPUT STEPS    5000
Info: ENERGY EVALUATION STEPS    5000
Info: OUTPUT ENERGY PRECISION 4
Info: CROSSTERM ENERGY INCLUDED IN DIHEDRAL
Info: TIMING OUTPUT STEPS    50000
Info: PRESSURE OUTPUT STEPS  5000
Info: LANGEVIN DYNAMICS ACTIVE
Info: LANGEVIN TEMPERATURE   300
Info: LANGEVIN USING BBK INTEGRATOR
Info: LANGEVIN DAMPING COEFFICIENT IS 1 INVERSE PS
Info: LANGEVIN DYNAMICS APPLIED TO HYDROGENS
Info: LANGEVIN PISTON PRESSURE CONTROL ACTIVE
Info:        TARGET PRESSURE IS 1.01325 BAR
Info:     OSCILLATION PERIOD IS 50 FS
Info:             DECAY TIME IS 25 FS
Info:     PISTON TEMPERATURE IS 300 K
Info:       PRESSURE CONTROL IS GROUP-BASED
Info:    INITIAL STRAIN RATE IS 0 0 0
Info:       CELL FLUCTUATION IS ISOTROPIC
Info: PARTICLE MESH EWALD (PME) ACTIVE
Info: PME TOLERANCE               1e-06
Info: PME EWALD COEFFICIENT       0.348832
Info: PME INTERPOLATION ORDER     4
Info: PME GRID DIMENSIONS         44 44 44
Info: PME MAXIMUM GRID SPACING    1
Info: FULL ELECTROSTATIC EVALUATION FREQUENCY      2
Info: USING VERLET I (r-RESPA) MTS SCHEME.
Info: C1 SPLITTING OF LONG RANGE ELECTROSTATICS
Info: PLACING ATOMS IN PATCHES BY HYDROGEN GROUPS
Info: RIGID BONDS TO HYDROGEN : ALL
Info:         ERROR TOLERANCE : 1e-08
Info:          MAX ITERATIONS : 100
Info: RIGID WATER USING SETTLE ALGORITHM
Info: RANDOM NUMBER SEED     1741320163
Info: USE HYDROGEN BONDS?    NO
Info: Using AMBER format force field!
Info: AMBER PARM FILE        mobley_2390199.prmtop
Info: COORDINATE PDB         mobley_2390199.pdb
Info: Exclusions will be read from PARM file!
Info: SCNB (VDW SCALING)     2
Info: USING ARITHMETIC MEAN TO COMBINE L-J SIGMA PARAMETERS
Info: SUMMARY OF PARAMETERS:
Info: 6 BONDS
Info: 7 ANGLES
Info:   7 HARMONIC
Info:   0 COSINE-BASED
Info: 14 DIHEDRAL
Info: 0 IMPROPER
Info: 0 CROSSTERM
Info: 0 VDW
Info: 21 VDW_PAIRS
Info: 0 NBTHOLE_PAIRS
Info: STRUCTURE SUMMARY:
Info: 5377 ATOMS
Info: 5376 BONDS
Info: 39 ANGLES
Info: 61 DIHEDRALS
Info: 0 IMPROPERS
Info: 0 CROSSTERMS
Info: 5463 EXCLUSIONS
Info: 5369 RIGID BONDS
Info: 10762 DEGREES OF FREEDOM
Info: 1793 HYDROGEN GROUPS
Info: 4 ATOMS IN LARGEST HYDROGEN GROUP
Info: 1793 MIGRATION GROUPS
Info: 4 ATOMS IN LARGEST MIGRATION GROUP
Info: TOTAL MASS = 32272.7 amu
Info: TOTAL CHARGE = -0.000399999 e
Info: MASS DENSITY = 0.733491 g/cm^3
Info: ATOM DENSITY = 0.0735936 atoms/A^3
Info: ADDED 0 IMPLICIT EXCLUSIONS
Info: NONBONDED TABLE R-SQUARED SPACING: 0.0625
Info: NONBONDED TABLE SIZE: 705 POINTS
Info: REMOVING COM VELOCITY 0.0966558 0.134349 -0.0167162
TCL: Minimizing for 2000 steps
ETITLE: TS BOND ANGLE DIHED IMPRP ELECT VDW BOUNDARY MISC KINETIC TOTAL TEMP POTENTIAL TOTAL3 TEMPAVG PRESSURE GPRESSURE VOLUME PRESSAVG GPRESSAVG
ENERGY: 0 0.2344 0.3615 33.7623 0.0000 -16794.7281 1860.0913 0.0000 0.0000 0.0000 -14900.2787 0.0000 -14900.2787 -14900.2787 0.0000 11235.3685 -16279.7355 73063.4514 11235.3685 -16279.7355
ENERGY: 400 33.1597 12.7154 32.7864 0.0000 -22750.7519 3366.0372 0.0000 0.0000 0.0000 -19306.0532 0.0000 -19306.0532 -19306.0532 0.0000 16435.1763 16595.0112 73063.4514 16435.1763 16595.0112
ENERGY: 800 0.9714 0.8825 31.3574 0.0000 -23592.1652 3691.2851 0.0000 0.0000 0.0000 -19867.6689 0.0000 -19867.6689 -19867.6689 0.0000 17742.9152 17862.6783 73063.4514 17742.9152 17862.6783
ENERGY: 1200 0.8549 0.7927 29.1392 0.0000 -24126.7938 3927.8599 0.0000 0.0000 0.0000 -20168.1470 0.0000 -20168.1470 -20168.1470 0.0000 18777.1375 18892.4448 73063.4514 18777.1375 18892.4448
ENERGY: 1600 0.7551 0.9633 29.2970 0.0000 -24504.7632 4143.6722 0.0000 0.0000 0.0000 -20330.0756 0.0000 -20330.0756 -20330.0756 0.0000 19807.8460 19903.3966 73063.4514 19807.8460 19903.3966
ENERGY: 2000 0.2620 0.6743 29.1282 0.0000 -24636.6624 4184.0278 0.0000 0.0000 0.0000 -20422.5701 0.0000 -20422.5701 -20422.5701 0.0000 20009.9608 20101.7681 73063.4514 20009.9608 20101.7681
TCL: Exiting due to exit command.
Info: NAMD 3.0.1 for Linux-x86_64-multicore
Info: Please visit http://www.ks.uiuc.edu/Research/namd/
Info: for updates, documentation, and support information.
Info: Please cite Phillips et al., J. Chem. Phys. 153:044130 (2020) doi:10.1063/5.0014475
Info: in all publications reporting results obtained with NAMD.
Info: Based on Charm++/Converse 80000 for multicore-linux-x86_64-gcc
Info: Built Mon Oct 14 11:11:06 CDT 2024 by dhardy on athine.ks.uiuc.edu
Info: 1 NAMD  3.0.1  Linux-x86_64-multicore  16    k006  z5358697
Info: Running on 16 processors, 1 nodes, 1 physical nodes.
Info: CPU topology information available.
Info: Charm++/Converse parallel runtime startup completed at 0.00953078 s
Info: 1043.45 MB of memory in use based on /proc/self/stat
Info: Configuration file is mobley_2390199_equil.namd
Info: Working in the current directory /srv/scratch/z5358697/prod_prep_2/2390199
TCL: Running 25000 steps at 30 kelvin.
TCL: Suspending until startup complete.
Info: SIMULATION PARAMETERS:
Info: TIMESTEP               2
Info: NUMBER OF STEPS        0
Info: STEPS PER CYCLE        10
Info: PERIODIC CELL BASIS 1  41.545 0 0
Info: PERIODIC CELL BASIS 2  0 41.628 0
Info: PERIODIC CELL BASIS 3  0 0 42.247
Info: PERIODIC CELL CENTER   0 0 0
Info: WRAPPING WATERS AROUND PERIODIC BOUNDARIES ON OUTPUT.
Info: WRAPPING ALL CLUSTERS AROUND PERIODIC BOUNDARIES ON OUTPUT.
Info: FIRST LDB TIMESTEP     50
Info: LAST LDB TIMESTEP     -1
Info: HOM BACKGROUND SCALING 1
Info: PME BACKGROUND SCALING 1
Info: MIN ATOMS PER PATCH    40
Info: EMPTY PATCH LOAD       40 ATOMS
Info: INITIAL TEMPERATURE    300
Info: CENTER OF MASS MOVING INITIALLY? NO
Info: DIELECTRIC             1
Info: EXCLUDE                SCALED ONE-FOUR
Info: 1-4 ELECTROSTATICS SCALED BY 0.833333
Info: MODIFIED 1-4 VDW PARAMETERS WILL BE USED
Info: DCD FILENAME           mobley_2390199_equil.dcd
Info: DCD FREQUENCY          5000
Info: DCD FIRST STEP         5000
Info: DCD FILE WILL CONTAIN UNIT CELL DATA
Info: XST FILENAME           mobley_2390199_equil.xst
Info: XST FREQUENCY          5000
Info: NO VELOCITY DCD OUTPUT
Info: NO FORCE DCD OUTPUT
Info: OUTPUT FILENAME        mobley_2390199_equil
Info: BINARY OUTPUT FILES WILL BE USED
Info: RESTART FILENAME       mobley_2390199_equil.restart
Info: RESTART FREQUENCY      5000
Info: BINARY RESTART FILES WILL BE USED
Info: CUTOFF                 9
Info: PAIRLIST DISTANCE      11
Info: PAIRLIST SHRINK RATE   0.01
Info: PAIRLIST GROW RATE     0.01
Info: PAIRLIST TRIGGER       0.3
Info: PAIRLISTS PER CYCLE    2
Info: PAIRLISTS ENABLED
Info: MARGIN                 8
Info: HYDROGEN GROUP CUTOFF  2.5
Info: PATCH DIMENSION        21.5
Info: ENERGY OUTPUT STEPS    5000
Info: ENERGY EVALUATION STEPS    5000
Info: OUTPUT ENERGY PRECISION 4
Info: CROSSTERM ENERGY INCLUDED IN DIHEDRAL
Info: TIMING OUTPUT STEPS    50000
Info: PRESSURE OUTPUT STEPS  5000
Info: LANGEVIN DYNAMICS ACTIVE
Info: LANGEVIN TEMPERATURE   30
Info: LANGEVIN USING BBK INTEGRATOR
Info: LANGEVIN DAMPING COEFFICIENT IS 1 INVERSE PS
Info: LANGEVIN DYNAMICS APPLIED TO HYDROGENS
Info: LANGEVIN PISTON PRESSURE CONTROL ACTIVE
Info:        TARGET PRESSURE IS 1.01325 BAR
Info:     OSCILLATION PERIOD IS 50 FS
Info:             DECAY TIME IS 25 FS
Info:     PISTON TEMPERATURE IS 300 K
Info:       PRESSURE CONTROL IS GROUP-BASED
Info:    INITIAL STRAIN RATE IS 0 0 0
Info:       CELL FLUCTUATION IS ISOTROPIC
Info: PARTICLE MESH EWALD (PME) ACTIVE
Info: PME TOLERANCE               1e-06
Info: PME EWALD COEFFICIENT       0.348832
Info: PME INTERPOLATION ORDER     4
Info: PME GRID DIMENSIONS         44 44 44
Info: PME MAXIMUM GRID SPACING    1
Info: FULL ELECTROSTATIC EVALUATION FREQUENCY      2
Info: USING VERLET I (r-RESPA) MTS SCHEME.
Info: C1 SPLITTING OF LONG RANGE ELECTROSTATICS
Info: PLACING ATOMS IN PATCHES BY HYDROGEN GROUPS
Info: RIGID BONDS TO HYDROGEN : ALL
Info:         ERROR TOLERANCE : 1e-08
Info:          MAX ITERATIONS : 100
Info: RIGID WATER USING SETTLE ALGORITHM
Info: RANDOM NUMBER SEED     1741320179
Info: USE HYDROGEN BONDS?    NO
Info: Using AMBER format force field!
Info: AMBER PARM FILE        mobley_2390199.prmtop
Info: COORDINATE PDB         mobley_2390199.pdb
Info: Exclusions will be read from PARM file!
Info: SCNB (VDW SCALING)     2
Info: USING ARITHMETIC MEAN TO COMBINE L-J SIGMA PARAMETERS
Info: BINARY COORDINATES     mobley_2390199_min.coor
Info: SUMMARY OF PARAMETERS:
Info: 6 BONDS
Info: 7 ANGLES
Info:   7 HARMONIC
Info:   0 COSINE-BASED
Info: 14 DIHEDRAL
Info: 0 IMPROPER
Info: 0 CROSSTERM
Info: 0 VDW
Info: 21 VDW_PAIRS
Info: 0 NBTHOLE_PAIRS
Info: STRUCTURE SUMMARY:
Info: 5377 ATOMS
Info: 5376 BONDS
Info: 39 ANGLES
Info: 61 DIHEDRALS
Info: 0 IMPROPERS
Info: 0 CROSSTERMS
Info: 5463 EXCLUSIONS
Info: 5369 RIGID BONDS
Info: 10762 DEGREES OF FREEDOM
Info: 1793 HYDROGEN GROUPS
Info: 4 ATOMS IN LARGEST HYDROGEN GROUP
Info: 1793 MIGRATION GROUPS
Info: 4 ATOMS IN LARGEST MIGRATION GROUP
Info: TOTAL MASS = 32272.7 amu
Info: TOTAL CHARGE = -0.000399999 e
Info: MASS DENSITY = 0.733491 g/cm^3
Info: ATOM DENSITY = 0.0735936 atoms/A^3
Info: ADDED 0 IMPLICIT EXCLUSIONS
Info: NONBONDED TABLE R-SQUARED SPACING: 0.0625
Info: NONBONDED TABLE SIZE: 705 POINTS
Info: REMOVING COM VELOCITY -0.0785629 -0.187918 -0.0929903
TCL: Running for 25000 steps
ETITLE: TS BOND ANGLE DIHED IMPRP ELECT VDW BOUNDARY MISC KINETIC TOTAL TEMP POTENTIAL TOTAL3 TEMPAVG PRESSURE GPRESSURE VOLUME PRESSAVG GPRESSAVG
ENERGY: 0 0.2620 0.6743 29.1282 0.0000 -24636.6624 4184.0278 0.0000 0.0000 3117.3496 -17305.2205 291.5298 -20422.5701 -17304.6377 291.5298 -117.7327 -74.6453 73063.4514 -117.7327 -74.6453
ENERGY: 5000 0.1625 1.7565 29.8118 0.0000 -25780.2068 4472.6885 0.0000 0.0000 331.2753 -20944.5122 30.9804 -21275.7875 -20943.6281 46.9746 269.9906 330.5046 51567.6588 -0.3511 -0.3302
ENERGY: 10000 0.6566 2.2915 28.9882 0.0000 -25718.4379 4375.5828 0.0000 0.0000 328.8039 -20982.1148 30.7492 -21310.9188 -20981.6222 30.5190 -228.2970 -166.8724 51580.5752 4.5240 4.5860
ENERGY: 15000 0.2322 1.9536 29.0863 0.0000 -25805.3385 4412.7760 0.0000 0.0000 318.8314 -21042.4590 29.8166 -21361.2904 -21041.6976 30.0867 -191.5018 -120.0276 51580.3197 -1.7783 -1.6926
ENERGY: 20000 0.2531 1.4624 29.2524 0.0000 -25767.8448 4354.5829 0.0000 0.0000 323.7158 -21058.5781 30.2734 -21382.2940 -21057.5175 29.9089 -481.1820 -435.9683 51600.4380 5.9605 5.7853
ENERGY: 25000 0.2848 1.3089 29.1847 0.0000 -25753.8433 4342.5407 0.0000 0.0000 313.5513 -21066.9729 29.3228 -21380.5241 -21066.1819 30.1455 -523.5759 -472.5120 51681.8884 3.1520 3.1927
TCL: Running 25000 steps at 60 kelvin.
TCL: Setting parameter langevinTemp to 60
TCL: Running for 25000 steps
ETITLE: TS BOND ANGLE DIHED IMPRP ELECT VDW BOUNDARY MISC KINETIC TOTAL TEMP POTENTIAL TOTAL3 TEMPAVG PRESSURE GPRESSURE VOLUME PRESSAVG GPRESSAVG
ENERGY: 25000 0.2848 1.3089 29.1847 0.0000 -25753.8433 4342.5407 0.0000 0.0000 313.3904 -21067.1337 29.3078 -21380.5241 -21066.3974 29.3078 -535.9049 -472.5856 51681.8884 -535.9049 -472.5856
ENERGY: 30000 0.6378 3.7765 29.6953 0.0000 -25457.5047 4344.6561 0.0000 0.0000 649.3590 -20429.3801 60.7271 -21078.7391 -20428.0635 57.1999 76.7092 130.9221 51767.5699 3.2109 3.3830
ENERGY: 35000 0.2611 2.3255 29.3288 0.0000 -25551.9659 4395.7299 0.0000 0.0000 636.1503 -20488.1703 59.4918 -21124.3206 -20487.0488 60.3014 284.4194 347.7119 51514.9891 0.5813 0.7907
ENERGY: 40000 0.3228 2.0814 29.7452 0.0000 -25415.1885 4229.6218 0.0000 0.0000 636.8032 -20516.6140 59.5529 -21153.4173 -20514.2360 59.8601 -627.1751 -536.7280 51779.2719 3.6406 3.6974
ENERGY: 45000 0.3348 2.8025 29.5034 0.0000 -25490.1537 4278.4117 0.0000 0.0000 641.7332 -20537.3682 60.0139 -21179.1014 -20535.9186 60.2820 -356.3207 -330.3913 51660.0036 3.2621 3.4037
ENERGY: 50000 0.8353 2.3607 29.3429 0.0000 -25658.1083 4431.3446 0.0000 0.0000 623.6859 -20570.5389 58.3262 -21194.2249 -20568.9327 59.5246 308.5686 369.6343 51433.0392 -1.6904 -1.7484
TCL: Running 25000 steps at 90 kelvin.
TCL: Setting parameter langevinTemp to 90
TCL: Running for 25000 steps
ETITLE: TS BOND ANGLE DIHED IMPRP ELECT VDW BOUNDARY MISC KINETIC TOTAL TEMP POTENTIAL TOTAL3 TEMPAVG PRESSURE GPRESSURE VOLUME PRESSAVG GPRESSAVG
ENERGY: 50000 0.8353 2.3607 29.3429 0.0000 -25658.1083 4431.3446 0.0000 0.0000 623.3674 -20570.8575 58.2964 -21194.2249 -20569.5546 58.2964 302.1020 369.2528 51433.0392 302.1020 369.2528
ENERGY: 55000 1.3475 4.5321 30.4836 0.0000 -25121.2313 4232.3877 0.0000 0.0000 972.4356 -19880.0447 90.9407 -20852.4803 -19877.6959 86.4699 77.3787 117.6982 51846.9631 4.1557 4.3747
ENERGY: 60000 1.0645 3.2906 29.7897 0.0000 -25262.7094 4383.3056 0.0000 0.0000 977.8338 -19867.4253 91.4455 -20845.2591 -19866.0504 90.8753 766.3915 840.1889 51731.1072 1.1870 1.1162
ENERGY: 65000 0.2172 4.1031 28.9409 0.0000 -25357.8909 4385.9293 0.0000 0.0000 958.8739 -19979.8265 89.6724 -20938.7003 -19976.2483 90.4146 645.9750 714.2000 51547.6416 -1.2473 -1.4203
ENERGY: 70000 0.3654 3.1165 30.0062 0.0000 -25247.9521 4293.2189 0.0000 0.0000 963.6512 -19957.5939 90.1192 -20921.2451 -19954.8841 90.1694 124.6330 197.0260 51910.2606 -0.1915 -0.2281
ENERGY: 75000 0.4752 2.5730 29.9421 0.0000 -25350.6026 4383.2212 0.0000 0.0000 938.9121 -19995.4790 87.8056 -20934.3911 -19993.0374 90.4638 623.2309 682.0461 51605.1266 4.8528 5.1123
TCL: Running 25000 steps at 120 kelvin.
TCL: Setting parameter langevinTemp to 120
TCL: Running for 25000 steps
ETITLE: TS BOND ANGLE DIHED IMPRP ELECT VDW BOUNDARY MISC KINETIC TOTAL TEMP POTENTIAL TOTAL3 TEMPAVG PRESSURE GPRESSURE VOLUME PRESSAVG GPRESSAVG
ENERGY: 75000 0.4752 2.5730 29.9421 0.0000 -25350.6026 4383.2212 0.0000 0.0000 938.4215 -19995.9696 87.7597 -20934.3911 -19994.3750 87.7597 617.3370 682.7072 51605.1266 617.3370 682.7072
ENERGY: 80000 0.7237 4.0330 30.8296 0.0000 -24934.0536 4326.9842 0.0000 0.0000 1273.2002 -19298.2829 119.0677 -20571.4831 -19297.3916 117.5686 1099.4154 1192.0629 51637.8353 0.8022 1.1805
ENERGY: 85000 0.4768 5.2570 29.5764 0.0000 -24829.4018 4154.4576 0.0000 0.0000 1262.7141 -19376.9199 118.0871 -20639.6340 -19374.1816 120.2561 113.5288 176.6222 52033.0935 4.7383 5.2825
ENERGY: 90000 0.9962 2.9920 29.8218 0.0000 -24938.4919 4206.2545 0.0000 0.0000 1300.0806 -19398.3468 121.5816 -20698.4274 -19395.2770 119.9847 292.3652 338.7541 51832.5277 -0.5737 -0.2296
ENERGY: 95000 0.0873 3.7799 29.1975 0.0000 -24902.7607 4170.6491 0.0000 0.0000 1281.7655 -19417.2814 119.8687 -20699.0469 -19414.7453 120.9487 64.7616 115.9434 51918.6944 2.0298 1.9789
ENERGY: 100000 0.9509 3.9593 31.1695 0.0000 -24911.8589 4113.2735 0.0000 0.0000 1286.2749 -19476.2308 120.2905 -20762.5057 -19472.5382 120.2974 -233.2564 -200.4188 51874.4886 1.6261 1.3268
TCL: Running 25000 steps at 150 kelvin.
TCL: Setting parameter langevinTemp to 150
TCL: Running for 25000 steps
ETITLE: TS BOND ANGLE DIHED IMPRP ELECT VDW BOUNDARY MISC KINETIC TOTAL TEMP POTENTIAL TOTAL3 TEMPAVG PRESSURE GPRESSURE VOLUME PRESSAVG GPRESSAVG
ENERGY: 100000 0.9509 3.9593 31.1695 0.0000 -24911.8589 4113.2735 0.0000 0.0000 1285.6524 -19476.8534 120.2322 -20762.5057 -19473.7493 120.2322 -261.1065 -200.2459 51874.4886 -261.1065 -200.2459
ENERGY: 105000 0.6394 8.0976 27.7319 0.0000 -24485.7832 4127.2350 0.0000 0.0000 1597.5711 -18724.5083 149.4024 -20322.0794 -18719.4175 146.1319 597.0578 684.4087 52074.7489 3.5784 3.6675
ENERGY: 110000 0.4177 5.7520 30.7834 0.0000 -24527.0182 4125.0949 0.0000 0.0000 1632.8021 -18732.1680 152.6972 -20364.9702 -18728.2844 150.6237 550.4714 631.0126 52036.9945 1.7850 1.9099
ENERGY: 115000 0.7848 3.8454 31.9415 0.0000 -24498.5825 4044.7762 0.0000 0.0000 1556.8111 -18860.4234 145.5906 -20417.2346 -18858.0230 149.2396 44.2343 91.9313 52121.0146 2.2893 2.6477
ENERGY: 120000 0.4630 3.3689 30.5521 0.0000 -24531.0701 4092.8208 0.0000 0.0000 1617.3946 -18786.4706 151.2563 -20403.8652 -18782.1005 149.7144 322.7223 387.4282 52070.0107 4.4103 4.6575
ENERGY: 125000 1.7251 2.2665 30.5931 0.0000 -24535.7391 4106.1079 0.0000 0.0000 1592.5430 -18802.5035 148.9322 -20395.0466 -18797.4792 149.6874 273.0375 328.3556 52330.2837 3.4590 3.8847
TCL: Running 50000 steps at 180 kelvin.
TCL: Setting parameter langevinTemp to 180
TCL: Running for 50000 steps
ETITLE: TS BOND ANGLE DIHED IMPRP ELECT VDW BOUNDARY MISC KINETIC TOTAL TEMP POTENTIAL TOTAL3 TEMPAVG PRESSURE GPRESSURE VOLUME PRESSAVG GPRESSAVG
ENERGY: 125000 1.7251 2.2665 30.5931 0.0000 -24535.7391 4106.1079 0.0000 0.0000 1591.7666 -18803.2799 148.8596 -20395.0466 -18800.3107 148.8596 275.4700 328.7026 52330.2837 275.4700 328.7026
ENERGY: 135000 0.6806 5.6844 30.5118 0.0000 -23686.8374 3702.8953 0.0000 0.0000 1931.8772 -18015.1881 180.6662 -19947.0653 -18008.9201 180.0172 -571.6214 -503.4536 52380.2050 3.7967 3.8687
ENERGY: 145000 0.7672 5.1188 29.3902 0.0000 -23710.4863 3709.1973 0.0000 0.0000 1891.9566 -18074.0563 176.9329 -19966.0129 -18069.0911 178.9015 -566.5684 -515.8576 52551.4586 3.8068 3.6785
ENERGY: 155000 2.1175 7.2162 30.2344 0.0000 -23678.6750 3690.4227 0.0000 0.0000 1919.7788 -18028.9054 179.5348 -19948.6842 -18023.6689 179.8456 -829.7404 -742.6481 52677.7326 1.2706 1.1349
ENERGY: 165000 1.0239 8.2463 28.9729 0.0000 -23915.8404 3890.1524 0.0000 0.0000 1939.1420 -18048.3028 181.3456 -19987.4448 -18043.3893 180.6796 230.3963 268.1765 52394.5184 1.5750 2.4461
ENERGY: 175000 2.0664 6.6875 32.0234 0.0000 -23837.5328 3843.1000 0.0000 0.0000 1900.6963 -18052.9591 177.7502 -19953.6555 -18047.7711 180.6154 -195.9126 -107.3525 52922.9594 -0.7521 -0.5260
TCL: Running 50000 steps at 210 kelvin.
TCL: Setting parameter langevinTemp to 210
TCL: Running for 50000 steps
ETITLE: TS BOND ANGLE DIHED IMPRP ELECT VDW BOUNDARY MISC KINETIC TOTAL TEMP POTENTIAL TOTAL3 TEMPAVG PRESSURE GPRESSURE VOLUME PRESSAVG GPRESSAVG
ENERGY: 175000 2.0664 6.6875 32.0234 0.0000 -23837.5328 3843.1000 0.0000 0.0000 1899.7374 -18053.9180 177.6605 -19953.6555 -18050.3429 177.6605 -157.6996 -108.1497 52922.9594 -157.6996 -108.1497
ENERGY: 185000 2.5205 4.3164 30.6224 0.0000 -22740.9665 3483.4114 0.0000 0.0000 2295.7144 -16924.3814 214.6917 -19220.0958 -16915.4640 209.9611 65.6399 83.2701 52074.4280 5.1748 5.1556
ENERGY: 195000 1.6435 4.2078 30.3083 0.0000 -22725.3722 3490.1297 0.0000 0.0000 2238.9564 -16960.1264 209.3838 -19199.0829 -16954.3162 211.1472 -103.5279 3.2283 52605.5856 2.9750 3.1803
ENERGY: 205000 0.8097 6.2806 29.3894 0.0000 -22562.8241 3342.5919 0.0000 0.0000 2210.8231 -16972.9293 206.7528 -19183.7525 -16966.5167 209.8141 -689.8501 -612.9620 52440.4907 0.7982 1.1160
ENERGY: 215000 0.8236 12.0228 29.1212 0.0000 -22461.7124 3314.8816 0.0000 0.0000 2231.9507 -16872.9124 208.7286 -19104.8632 -16868.9274 209.5052 -618.5979 -513.0732 52391.0518 0.4770 -0.0303
ENERGY: 225000 1.7295 6.6403 29.6468 0.0000 -22565.3166 3366.5728 0.0000 0.0000 2262.0640 -16898.6632 211.5448 -19160.7272 -16894.7430 210.3769 -452.4323 -374.1789 52399.3583 4.7832 5.2253
TCL: Running 50000 steps at 240 kelvin.
TCL: Setting parameter langevinTemp to 240
TCL: Running for 50000 steps
ETITLE: TS BOND ANGLE DIHED IMPRP ELECT VDW BOUNDARY MISC KINETIC TOTAL TEMP POTENTIAL TOTAL3 TEMPAVG PRESSURE GPRESSURE VOLUME PRESSAVG GPRESSAVG
ENERGY: 225000 1.7295 6.6403 29.6468 0.0000 -22565.3166 3366.5728 0.0000 0.0000 2260.9501 -16899.7771 211.4406 -19160.7272 -16895.6744 211.4406 -458.0310 -375.2171 52399.3583 -458.0310 -375.2171
ENERGY: 235000 1.1689 8.2856 27.8546 0.0000 -21662.0004 3199.0035 0.0000 0.0000 2577.8320 -15847.8559 241.0749 -18425.6879 -15843.6861 240.1275 201.1251 272.8464 52853.1783 3.9504 4.3634
ENERGY: 245000 1.5531 9.7014 28.7288 0.0000 -21367.0251 3021.3479 0.0000 0.0000 2602.8333 -15702.8606 243.4130 -18305.6939 -15696.4241 239.8481 -425.2140 -378.6446 53202.2053 5.2230 5.8444
ENERGY: 255000 1.2103 7.4564 28.9358 0.0000 -21375.8862 3037.6651 0.0000 0.0000 2565.2929 -15735.3258 239.9023 -18300.6186 -15729.0854 240.7845 -452.9100 -395.8927 53285.9123 0.3404 0.5541
ENERGY: 265000 1.8015 7.7475 27.8315 0.0000 -21450.3833 3045.2322 0.0000 0.0000 2606.4235 -15761.3471 243.7487 -18367.7707 -15754.2335 238.8253 -561.8023 -510.4297 53550.4465 -0.9087 -0.7173
ENERGY: 275000 1.0911 8.6376 29.2139 0.0000 -21595.0369 3176.1271 0.0000 0.0000 2600.4870 -15779.4802 243.1936 -18379.9672 -15772.3236 239.6927 114.7182 243.8809 52748.0253 5.1800 5.0981
TCL: Running 50000 steps at 270 kelvin.
TCL: Setting parameter langevinTemp to 270
TCL: Running for 50000 steps
ETITLE: TS BOND ANGLE DIHED IMPRP ELECT VDW BOUNDARY MISC KINETIC TOTAL TEMP POTENTIAL TOTAL3 TEMPAVG PRESSURE GPRESSURE VOLUME PRESSAVG GPRESSAVG
ENERGY: 275000 1.0911 8.6376 29.2139 0.0000 -21595.0369 3176.1271 0.0000 0.0000 2599.2274 -15780.7398 243.0758 -18379.9672 -15777.1854 243.0758 167.6931 245.1156 52748.0253 167.6931 245.1156
ENERGY: 285000 3.5604 6.3427 30.2543 0.0000 -20542.2505 2923.4340 0.0000 0.0000 2877.3547 -14701.3044 269.0858 -17578.6591 -14695.3739 270.9334 305.6799 387.1782 54053.7702 1.4588 1.4947
ENERGY: 295000 1.0696 8.6220 31.0919 0.0000 -20455.8379 2853.9597 0.0000 0.0000 2923.8964 -14637.1982 273.4383 -17561.0946 -14633.6988 269.9277 -71.7906 41.7004 54067.8392 5.7484 6.3982
ENERGY: 305000 2.2622 7.3822 29.9044 0.0000 -20569.6656 2852.5305 0.0000 0.0000 2861.3273 -14816.2590 267.5870 -17677.5863 -14810.9021 269.7972 -143.2082 -19.7399 53706.5336 2.8023 2.6201
ENERGY: 315000 1.7249 8.6341 31.2599 0.0000 -20631.1941 2997.6752 0.0000 0.0000 2898.9904 -14692.9097 271.1091 -17591.9000 -14688.8359 268.9961 771.1876 849.3226 53530.2187 2.0008 0.9220
ENERGY: 325000 3.4086 10.5300 30.9323 0.0000 -20379.1428 2856.9274 0.0000 0.0000 2862.1478 -14615.1967 267.6637 -17477.3445 -14609.5035 271.4821 156.7354 220.5268 53951.1812 -1.3533 -0.9553
TCL: Running 1000000 steps at 300 kelvin.
TCL: Setting parameter langevinTemp to 300
TCL: Running for 1000000 steps
ETITLE: TS BOND ANGLE DIHED IMPRP ELECT VDW BOUNDARY MISC KINETIC TOTAL TEMP POTENTIAL TOTAL3 TEMPAVG PRESSURE GPRESSURE VOLUME PRESSAVG GPRESSAVG
ENERGY: 325000 3.4086 10.5300 30.9323 0.0000 -20379.1428 2856.9274 0.0000 0.0000 2860.7266 -14616.6179 267.5308 -17477.3445 -14613.6111 267.5308 133.1580 221.1343 53951.1812 133.1580 221.1343
ENERGY: 525000 2.5017 15.7873 30.8905 0.0000 -19385.8940 2517.5804 0.0000 0.0000 3235.2505 -13583.8835 302.5557 -16819.1340 -13576.9715 300.8509 -385.5167 -278.0664 55208.2907 0.7168 0.5993
ENERGY: 725000 0.3562 8.4434 30.3936 0.0000 -19308.0436 2523.9464 0.0000 0.0000 3218.7345 -13526.1695 301.0111 -16744.9040 -13518.8907 300.2402 -295.2422 -220.7138 55701.1599 -0.2845 0.1611
ENERGY: 925000 2.6560 11.4033 31.0189 0.0000 -19628.7833 2597.9463 0.0000 0.0000 3198.5886 -13787.1701 299.1271 -16985.7587 -13775.7139 298.9159 -316.8951 -241.8788 55335.4100 3.9586 3.7495
ENERGY: 1125000 1.9572 9.7436 29.5394 0.0000 -19492.8615 2602.8153 0.0000 0.0000 3222.1756 -13626.6303 301.3329 -16848.8059 -13621.6886 299.8001 -9.2305 119.5276 55083.2888 1.8523 1.8421
ENERGY: 1325000 2.9982 11.0940 29.9874 0.0000 -19450.5467 2556.7031 0.0000 0.0000 3187.8152 -13661.9489 298.1196 -16849.7641 -13657.0148 299.6794 -360.2106 -281.7956 55745.3058 0.5478 0.8725
TCL: Exiting due to exit command.
