Info: SIMULATION PARAMETERS:
Info: TIMESTEP               2
Info: NUMBER OF STEPS        0
Info: STEPS PER CYCLE        10
Info: PERIODIC CELL BASIS 1  39.546 0 0
Info: PERIODIC CELL BASIS 2  0 43.47 0
Info: PERIODIC CELL BASIS 3  0 0 44.966
Info: PERIODIC CELL CENTER   0 0 0
Info: WRAPPING WATERS AROUND PERIODIC BOUNDARIES ON OUTPUT.
Info: WRAPPING ALL CLUSTERS AROUND PERIODIC BOUNDARIES ON OUTPUT.
Info: FIRST LDB TIMESTEP     50
Info: LAST LDB TIMESTEP     -1
Info: HOM BACKGROUND SCALING 1
Info: PME BACKGROUND SCALING 1
Info: MIN ATOMS PER PATCH    40
Info: EMPTY PATCH LOAD       40 ATOMS
Info: INITIAL TEMPERATURE    300
Info: CENTER OF MASS MOVING INITIALLY? NO
Info: DIELECTRIC             1
Info: EXCLUDE                SCALED ONE-FOUR
Info: 1-4 ELECTROSTATICS SCALED BY 0.833333
Info: MODIFIED 1-4 VDW PARAMETERS WILL BE USED
Info: DCD FILENAME           mobley_6248915_min.dcd
Info: DCD FREQUENCY          5000
Info: DCD FIRST STEP         5000
Info: DCD FILE WILL CONTAIN UNIT CELL DATA
Info: XST FILENAME           mobley_6248915_min.xst
Info: XST FREQUENCY          5000
Info: NO VELOCITY DCD OUTPUT
Info: NO FORCE DCD OUTPUT
Info: OUTPUT FILENAME        mobley_6248915_min
Info: BINARY OUTPUT FILES WILL BE USED
Info: RESTART FILENAME       mobley_6248915_min.restart
Info: RESTART FREQUENCY      5000
Info: BINARY RESTART FILES WILL BE USED
Info: CUTOFF                 9
Info: PAIRLIST DISTANCE      11
Info: PAIRLIST SHRINK RATE   0.01
Info: PAIRLIST GROW RATE     0.01
Info: PAIRLIST TRIGGER       0.3
Info: PAIRLISTS PER CYCLE    2
Info: PAIRLISTS ENABLED
Info: MARGIN                 8
Info: HYDROGEN GROUP CUTOFF  2.5
Info: PATCH DIMENSION        21.5
Info: ENERGY OUTPUT STEPS    5000
Info: ENERGY EVALUATION STEPS    5000
Info: OUTPUT ENERGY PRECISION 4
Info: CROSSTERM ENERGY INCLUDED IN DIHEDRAL
Info: TIMING OUTPUT STEPS    50000
Info: PRESSURE OUTPUT STEPS  5000
Info: LANGEVIN DYNAMICS ACTIVE
Info: LANGEVIN TEMPERATURE   300
Info: LANGEVIN USING BBK INTEGRATOR
Info: LANGEVIN DAMPING COEFFICIENT IS 1 INVERSE PS
Info: LANGEVIN DYNAMICS APPLIED TO HYDROGENS
Info: LANGEVIN PISTON PRESSURE CONTROL ACTIVE
Info:        TARGET PRESSURE IS 1.01325 BAR
Info:     OSCILLATION PERIOD IS 50 FS
Info:             DECAY TIME IS 25 FS
Info:     PISTON TEMPERATURE IS 300 K
Info:       PRESSURE CONTROL IS GROUP-BASED
Info:    INITIAL STRAIN RATE IS 0 0 0
Info:       CELL FLUCTUATION IS ISOTROPIC
Info: PARTICLE MESH EWALD (PME) ACTIVE
Info: PME TOLERANCE               1e-06
Info: PME EWALD COEFFICIENT       0.348832
Info: PME INTERPOLATION ORDER     4
Info: PME GRID DIMENSIONS         40 44 48
Info: PME MAXIMUM GRID SPACING    1
Info: FULL ELECTROSTATIC EVALUATION FREQUENCY      2
Info: USING VERLET I (r-RESPA) MTS SCHEME.
Info: C1 SPLITTING OF LONG RANGE ELECTROSTATICS
Info: PLACING ATOMS IN PATCHES BY HYDROGEN GROUPS
Info: RIGID BONDS TO HYDROGEN : ALL
Info:         ERROR TOLERANCE : 1e-08
Info:          MAX ITERATIONS : 100
Info: RIGID WATER USING SETTLE ALGORITHM
Info: RANDOM NUMBER SEED     1741353791
Info: USE HYDROGEN BONDS?    NO
Info: Using AMBER format force field!
Info: AMBER PARM FILE        mobley_6248915.prmtop
Info: COORDINATE PDB         mobley_6248915.pdb
Info: Exclusions will be read from PARM file!
Info: SCNB (VDW SCALING)     2
Info: USING ARITHMETIC MEAN TO COMBINE L-J SIGMA PARAMETERS
Info: SUMMARY OF PARAMETERS:
Info: 7 BONDS
Info: 9 ANGLES
Info: 8 DIHEDRAL
Info: 0 IMPROPER
Info: 0 CROSSTERM
Info: 0 VDW
Info: 28 VDW_PAIRS
Info: 0 NBTHOLE_PAIRS
Info: STRUCTURE SUMMARY:
Info: 5602 ATOMS
Info: 5601 BONDS
Info: 51 ANGLES
Info: 69 DIHEDRALS
Info: 0 IMPROPERS
Info: 0 CROSSTERMS
Info: 5721 EXCLUSIONS
Info: 5593 RIGID BONDS
Info: 11213 DEGREES OF FREEDOM
Info: 1867 HYDROGEN GROUPS
Info: 4 ATOMS IN LARGEST HYDROGEN GROUP
Info: 1867 MIGRATION GROUPS
Info: 4 ATOMS IN LARGEST MIGRATION GROUP
Info: TOTAL MASS = 33603 amu
Info: TOTAL CHARGE = 2.6077e-08 e
Info: MASS DENSITY = 0.721872 g/cm^3
Info: ATOM DENSITY = 0.0724714 atoms/A^3
Info: ADDED 0 IMPLICIT EXCLUSIONS
Info: NONBONDED TABLE R-SQUARED SPACING: 0.0625
Info: NONBONDED TABLE SIZE: 705 POINTS
Info: REMOVING COM VELOCITY -0.0475569 0.0256461 0.15527
TCL: Minimizing for 2000 steps
ETITLE: TS BOND ANGLE DIHED IMPRP ELECT VDW BOUNDARY MISC KINETIC TOTAL TEMP POTENTIAL TOTAL3 TEMPAVG PRESSURE GPRESSURE VOLUME PRESSAVG GPRESSAVG
ENERGY: 0 0.2777 6.1476 1.1239 0.0000 -17312.5984 1915.6039 0.0000 0.0000 0.0000 -15389.4453 0.0000 -15389.4453 -15389.4453 0.0000 10952.5340 -16034.1720 77299.4597 10952.5340 -16034.1720
ENERGY: 400 5.7072 4.9462 0.1551 0.0000 -23223.9426 3313.2763 0.0000 0.0000 0.0000 -19899.8578 0.0000 -19899.8578 -19899.8578 0.0000 15464.2926 15621.3685 77299.4597 15464.2926 15621.3685
ENERGY: 800 0.9696 1.0941 0.0609 0.0000 -24760.3628 4086.4336 0.0000 0.0000 0.0000 -20671.8045 0.0000 -20671.8045 -20671.8045 0.0000 18598.5771 18742.6785 77299.4597 18598.5771 18742.6785
ENERGY: 1200 0.3991 1.0595 0.5728 0.0000 -25173.3374 4257.8801 0.0000 0.0000 0.0000 -20913.4258 0.0000 -20913.4258 -20913.4258 0.0000 19336.7810 19468.3430 77299.4597 19336.7810 19468.3430
ENERGY: 1600 0.2476 0.5496 0.6894 0.0000 -25482.9013 4392.8293 0.0000 0.0000 0.0000 -21088.5855 0.0000 -21088.5855 -21088.5855 0.0000 19930.2315 20048.9933 77299.4597 19930.2315 20048.9933
ENERGY: 2000 0.1134 0.6772 0.2843 0.0000 -25705.2042 4477.3255 0.0000 0.0000 0.0000 -21226.8037 0.0000 -21226.8037 -21226.8037 0.0000 20317.5778 20422.7490 77299.4597 20317.5778 20422.7490
TCL: Exiting due to exit command.
Info: NAMD 3.0.1 for Linux-x86_64-multicore
Info: Please visit http://www.ks.uiuc.edu/Research/namd/
Info: for updates, documentation, and support information.
Info: Please cite Phillips et al., J. Chem. Phys. 153:044130 (2020) doi:10.1063/5.0014475
Info: in all publications reporting results obtained with NAMD.
Info: Based on Charm++/Converse 80000 for multicore-linux-x86_64-gcc
Info: Built Mon Oct 14 11:11:06 CDT 2024 by dhardy on athine.ks.uiuc.edu
Info: 1 NAMD  3.0.1  Linux-x86_64-multicore  16    k014  z5358697
Info: Running on 16 processors, 1 nodes, 1 physical nodes.
Info: CPU topology information available.
Info: Charm++/Converse parallel runtime startup completed at 0.0091823 s
Info: 1043.45 MB of memory in use based on /proc/self/stat
Info: Configuration file is mobley_6248915_equil.namd
Info: Working in the current directory /srv/scratch/z5358697/prod_prep_7/6248915
TCL: Running 25000 steps at 30 kelvin.
TCL: Suspending until startup complete.
Info: SIMULATION PARAMETERS:
Info: TIMESTEP               2
Info: NUMBER OF STEPS        0
Info: STEPS PER CYCLE        10
Info: PERIODIC CELL BASIS 1  39.546 0 0
Info: PERIODIC CELL BASIS 2  0 43.47 0
Info: PERIODIC CELL BASIS 3  0 0 44.966
Info: PERIODIC CELL CENTER   0 0 0
Info: WRAPPING WATERS AROUND PERIODIC BOUNDARIES ON OUTPUT.
Info: WRAPPING ALL CLUSTERS AROUND PERIODIC BOUNDARIES ON OUTPUT.
Info: FIRST LDB TIMESTEP     50
Info: LAST LDB TIMESTEP     -1
Info: HOM BACKGROUND SCALING 1
Info: PME BACKGROUND SCALING 1
Info: MIN ATOMS PER PATCH    40
Info: EMPTY PATCH LOAD       40 ATOMS
Info: INITIAL TEMPERATURE    300
Info: CENTER OF MASS MOVING INITIALLY? NO
Info: DIELECTRIC             1
Info: EXCLUDE                SCALED ONE-FOUR
Info: 1-4 ELECTROSTATICS SCALED BY 0.833333
Info: MODIFIED 1-4 VDW PARAMETERS WILL BE USED
Info: DCD FILENAME           mobley_6248915_equil.dcd
Info: DCD FREQUENCY          5000
Info: DCD FIRST STEP         5000
Info: DCD FILE WILL CONTAIN UNIT CELL DATA
Info: XST FILENAME           mobley_6248915_equil.xst
Info: XST FREQUENCY          5000
Info: NO VELOCITY DCD OUTPUT
Info: NO FORCE DCD OUTPUT
Info: OUTPUT FILENAME        mobley_6248915_equil
Info: BINARY OUTPUT FILES WILL BE USED
Info: RESTART FILENAME       mobley_6248915_equil.restart
Info: RESTART FREQUENCY      5000
Info: BINARY RESTART FILES WILL BE USED
Info: CUTOFF                 9
Info: PAIRLIST DISTANCE      11
Info: PAIRLIST SHRINK RATE   0.01
Info: PAIRLIST GROW RATE     0.01
Info: PAIRLIST TRIGGER       0.3
Info: PAIRLISTS PER CYCLE    2
Info: PAIRLISTS ENABLED
Info: MARGIN                 8
Info: HYDROGEN GROUP CUTOFF  2.5
Info: PATCH DIMENSION        21.5
Info: ENERGY OUTPUT STEPS    5000
Info: ENERGY EVALUATION STEPS    5000
Info: OUTPUT ENERGY PRECISION 4
Info: CROSSTERM ENERGY INCLUDED IN DIHEDRAL
Info: TIMING OUTPUT STEPS    50000
Info: PRESSURE OUTPUT STEPS  5000
Info: LANGEVIN DYNAMICS ACTIVE
Info: LANGEVIN TEMPERATURE   30
Info: LANGEVIN USING BBK INTEGRATOR
Info: LANGEVIN DAMPING COEFFICIENT IS 1 INVERSE PS
Info: LANGEVIN DYNAMICS APPLIED TO HYDROGENS
Info: LANGEVIN PISTON PRESSURE CONTROL ACTIVE
Info:        TARGET PRESSURE IS 1.01325 BAR
Info:     OSCILLATION PERIOD IS 50 FS
Info:             DECAY TIME IS 25 FS
Info:     PISTON TEMPERATURE IS 300 K
Info:       PRESSURE CONTROL IS GROUP-BASED
Info:    INITIAL STRAIN RATE IS 0 0 0
Info:       CELL FLUCTUATION IS ISOTROPIC
Info: PARTICLE MESH EWALD (PME) ACTIVE
Info: PME TOLERANCE               1e-06
Info: PME EWALD COEFFICIENT       0.348832
Info: PME INTERPOLATION ORDER     4
Info: PME GRID DIMENSIONS         40 44 48
Info: PME MAXIMUM GRID SPACING    1
Info: FULL ELECTROSTATIC EVALUATION FREQUENCY      2
Info: USING VERLET I (r-RESPA) MTS SCHEME.
Info: C1 SPLITTING OF LONG RANGE ELECTROSTATICS
Info: PLACING ATOMS IN PATCHES BY HYDROGEN GROUPS
Info: RIGID BONDS TO HYDROGEN : ALL
Info:         ERROR TOLERANCE : 1e-08
Info:          MAX ITERATIONS : 100
Info: RIGID WATER USING SETTLE ALGORITHM
Info: RANDOM NUMBER SEED     1741353814
Info: USE HYDROGEN BONDS?    NO
Info: Using AMBER format force field!
Info: AMBER PARM FILE        mobley_6248915.prmtop
Info: COORDINATE PDB         mobley_6248915.pdb
Info: Exclusions will be read from PARM file!
Info: SCNB (VDW SCALING)     2
Info: USING ARITHMETIC MEAN TO COMBINE L-J SIGMA PARAMETERS
Info: BINARY COORDINATES     mobley_6248915_min.coor
Info: SUMMARY OF PARAMETERS:
Info: 7 BONDS
Info: 9 ANGLES
Info: 8 DIHEDRAL
Info: 0 IMPROPER
Info: 0 CROSSTERM
Info: 0 VDW
Info: 28 VDW_PAIRS
Info: 0 NBTHOLE_PAIRS
Info: STRUCTURE SUMMARY:
Info: 5602 ATOMS
Info: 5601 BONDS
Info: 51 ANGLES
Info: 69 DIHEDRALS
Info: 0 IMPROPERS
Info: 0 CROSSTERMS
Info: 5721 EXCLUSIONS
Info: 5593 RIGID BONDS
Info: 11213 DEGREES OF FREEDOM
Info: 1867 HYDROGEN GROUPS
Info: 4 ATOMS IN LARGEST HYDROGEN GROUP
Info: 1867 MIGRATION GROUPS
Info: 4 ATOMS IN LARGEST MIGRATION GROUP
Info: TOTAL MASS = 33603 amu
Info: TOTAL CHARGE = 2.6077e-08 e
Info: MASS DENSITY = 0.721872 g/cm^3
Info: ATOM DENSITY = 0.0724714 atoms/A^3
Info: ADDED 0 IMPLICIT EXCLUSIONS
Info: NONBONDED TABLE R-SQUARED SPACING: 0.0625
Info: NONBONDED TABLE SIZE: 705 POINTS
Info: REMOVING COM VELOCITY 0.0498743 0.0612784 -0.148697
TCL: Running for 25000 steps
ETITLE: TS BOND ANGLE DIHED IMPRP ELECT VDW BOUNDARY MISC KINETIC TOTAL TEMP POTENTIAL TOTAL3 TEMPAVG PRESSURE GPRESSURE VOLUME PRESSAVG GPRESSAVG
ENERGY: 0 0.1134 0.6772 0.2843 0.0000 -25705.2042 4477.3255 0.0000 0.0000 3394.3222 -17832.4815 304.6643 -21226.8037 -17831.8055 304.6643 436.6786 478.9177 77299.4597 436.6786 478.9177
ENERGY: 5000 0.3407 2.0634 1.4809 0.0000 -26775.3655 4589.0298 0.0000 0.0000 341.3782 -21841.0725 30.6411 -22182.4507 -21839.9082 48.0668 -344.1048 -277.4115 54964.3341 2.1952 2.0598
ENERGY: 10000 0.1352 2.3506 2.0208 0.0000 -26965.5281 4720.2193 0.0000 0.0000 331.9485 -21908.8538 29.7947 -22240.8023 -21908.1780 30.4712 140.6156 221.4247 54619.8135 1.6967 1.6333
ENERGY: 15000 0.1678 3.0752 1.2996 0.0000 -27088.9512 4812.3858 0.0000 0.0000 339.6488 -21932.3742 30.4859 -22272.0230 -21931.4646 30.1357 563.1890 617.4841 54466.1302 1.7462 1.7251
ENERGY: 20000 0.3763 1.8141 1.8328 0.0000 -26923.5918 4636.0526 0.0000 0.0000 335.6551 -21947.8609 30.1274 -22283.5160 -21946.9676 30.2315 -233.2468 -169.2845 54519.7596 -0.2811 -0.1034
ENERGY: 25000 0.5116 1.9162 1.7346 0.0000 -26924.1819 4611.7655 0.0000 0.0000 326.7485 -21981.5054 29.3280 -22308.2539 -21980.7269 30.1707 -359.2283 -310.1594 54412.8491 0.3141 0.5166
TCL: Running 25000 steps at 60 kelvin.
TCL: Setting parameter langevinTemp to 60
TCL: Running for 25000 steps
ETITLE: TS BOND ANGLE DIHED IMPRP ELECT VDW BOUNDARY MISC KINETIC TOTAL TEMP POTENTIAL TOTAL3 TEMPAVG PRESSURE GPRESSURE VOLUME PRESSAVG GPRESSAVG
ENERGY: 25000 0.5116 1.9162 1.7346 0.0000 -26924.1819 4611.7655 0.0000 0.0000 326.5823 -21981.6717 29.3131 -22308.2539 -21980.9838 29.3131 -363.0857 -310.1547 54412.8491 -363.0857 -310.1547
ENERGY: 30000 1.1904 2.4417 1.3257 0.0000 -26393.7658 4401.7396 0.0000 0.0000 677.3099 -21309.7584 60.7933 -21987.0682 -21307.6959 57.3050 -666.6734 -607.2199 54730.9405 6.1069 6.0747
ENERGY: 35000 0.3744 2.7498 2.0670 0.0000 -26494.1944 4455.6697 0.0000 0.0000 678.1093 -21355.2241 60.8651 -22033.3335 -21353.7315 60.5770 -510.3418 -461.3455 54661.5833 3.7391 3.4503
ENERGY: 40000 0.5495 3.4061 1.7515 0.0000 -26630.8028 4555.4866 0.0000 0.0000 668.3572 -21401.2518 59.9898 -22069.6090 -21399.9729 60.4617 -112.7793 -41.2814 54353.4837 -0.5848 -0.5165
ENERGY: 45000 0.6030 3.0440 2.1905 0.0000 -26691.0030 4560.1935 0.0000 0.0000 665.1177 -21459.8544 59.6990 -22124.9720 -21458.2095 60.5653 -197.6081 -144.6805 54255.4451 2.0541 2.2729
ENERGY: 50000 0.6796 3.8754 1.2195 0.0000 -26576.1168 4435.4067 0.0000 0.0000 662.2956 -21472.6400 59.4457 -22134.9356 -21470.6648 60.2148 -875.0020 -786.0307 54494.0662 -0.6819 -0.2586
TCL: Running 25000 steps at 90 kelvin.
TCL: Setting parameter langevinTemp to 90
TCL: Running for 25000 steps
ETITLE: TS BOND ANGLE DIHED IMPRP ELECT VDW BOUNDARY MISC KINETIC TOTAL TEMP POTENTIAL TOTAL3 TEMPAVG PRESSURE GPRESSURE VOLUME PRESSAVG GPRESSAVG
ENERGY: 50000 0.6796 3.8754 1.2195 0.0000 -26576.1168 4435.4067 0.0000 0.0000 661.9539 -21472.9817 59.4150 -22134.9356 -21471.6234 59.4150 -843.4268 -785.6990 54494.0662 -843.4268 -785.6990
ENERGY: 55000 1.0393 5.8299 1.3250 0.0000 -26324.4660 4511.9118 0.0000 0.0000 1003.0655 -20801.2946 90.0322 -21804.3600 -20797.5100 86.3654 191.1326 249.9448 54397.9568 1.2800 1.1349
ENERGY: 60000 0.2016 3.7652 1.4444 0.0000 -26461.9179 4618.7629 0.0000 0.0000 989.7958 -20847.9480 88.8412 -21837.7438 -20844.9462 89.8688 717.1524 759.5143 54121.4153 2.2309 2.2319
ENERGY: 65000 1.7500 4.8633 1.0076 0.0000 -26250.4137 4404.4921 0.0000 0.0000 1009.8795 -20828.4212 90.6438 -21838.3007 -20825.0432 89.6862 -315.5708 -285.7637 54546.0037 -1.6514 -1.4364
ENERGY: 70000 1.6679 4.1878 1.7735 0.0000 -26400.4991 4517.8683 0.0000 0.0000 1003.3977 -20871.6039 90.0620 -21875.0016 -20869.3328 90.6858 94.4095 163.9187 54256.6588 1.5340 1.5839
ENERGY: 75000 0.4559 3.8013 1.9562 0.0000 -26395.6199 4486.6897 0.0000 0.0000 1009.0068 -20893.7100 90.5655 -21902.7168 -20891.6546 90.6271 43.9350 92.4118 54144.4373 5.1787 5.3260
TCL: Running 25000 steps at 120 kelvin.
TCL: Setting parameter langevinTemp to 120
TCL: Running for 25000 steps
ETITLE: TS BOND ANGLE DIHED IMPRP ELECT VDW BOUNDARY MISC KINETIC TOTAL TEMP POTENTIAL TOTAL3 TEMPAVG PRESSURE GPRESSURE VOLUME PRESSAVG GPRESSAVG
ENERGY: 75000 0.4559 3.8013 1.9562 0.0000 -26395.6199 4486.6897 0.0000 0.0000 1008.5065 -20894.2103 90.5206 -21902.7168 -20892.1218 90.5206 42.2009 92.2038 54144.4373 42.2009 92.2038
ENERGY: 80000 0.4960 4.1092 2.1348 0.0000 -25635.7855 4144.4589 0.0000 0.0000 1312.0560 -20172.5306 117.7663 -21484.5866 -20169.9463 116.3575 -727.0860 -698.6638 54834.7004 2.8814 3.1583
ENERGY: 85000 1.3377 6.5352 1.9533 0.0000 -25854.1922 4319.7096 0.0000 0.0000 1347.9462 -20176.7102 120.9877 -21524.6564 -20173.0146 120.8776 64.6943 112.8328 54187.9589 0.3399 0.2956
ENERGY: 90000 1.4420 5.2062 1.3710 0.0000 -25882.5682 4320.2938 0.0000 0.0000 1345.5098 -20208.7454 120.7690 -21554.2552 -20206.5125 120.3175 -72.2491 -18.7220 54331.9530 3.3343 3.7704
ENERGY: 95000 1.0584 5.5524 1.3565 0.0000 -25999.6210 4403.4154 0.0000 0.0000 1330.6627 -20257.5757 119.4364 -21588.2384 -20254.3135 119.6762 172.7469 214.5426 54452.7474 -0.3049 -0.8753
ENERGY: 100000 2.7321 4.3730 2.3072 0.0000 -26182.4720 4529.4751 0.0000 0.0000 1325.4180 -20318.1666 118.9656 -21643.5846 -20315.2891 120.4027 705.8431 763.7019 53996.7049 1.6692 1.7668
TCL: Running 25000 steps at 150 kelvin.
TCL: Setting parameter langevinTemp to 150
TCL: Running for 25000 steps
ETITLE: TS BOND ANGLE DIHED IMPRP ELECT VDW BOUNDARY MISC KINETIC TOTAL TEMP POTENTIAL TOTAL3 TEMPAVG PRESSURE GPRESSURE VOLUME PRESSAVG GPRESSAVG
ENERGY: 100000 2.7321 4.3730 2.3072 0.0000 -26182.4720 4529.4751 0.0000 0.0000 1324.7703 -20318.8143 118.9075 -21643.5846 -20316.1974 118.9075 708.0912 763.4776 53996.7049 708.0912 763.4776
ENERGY: 105000 1.0483 8.5159 1.1228 0.0000 -25388.0686 4161.6065 0.0000 0.0000 1698.2753 -19517.4996 152.4322 -21215.7750 -19514.1176 146.7443 -101.3396 -54.1125 54600.0339 7.8287 7.8798
ENERGY: 110000 0.2065 9.6084 1.8509 0.0000 -25393.8203 4142.0061 0.0000 0.0000 1664.1339 -19576.0145 149.3677 -21240.1484 -19571.0664 150.8411 -276.3796 -171.1641 54656.8061 6.6516 7.0792
ENERGY: 115000 2.0341 4.1965 1.8110 0.0000 -25298.8168 4030.4982 0.0000 0.0000 1709.9395 -19550.3375 153.4791 -21260.2770 -19546.6585 150.6574 -801.2746 -734.6936 54828.6956 3.5123 3.7568
ENERGY: 120000 1.0756 7.5199 1.9963 0.0000 -25418.5743 4151.6158 0.0000 0.0000 1669.6973 -19586.6693 149.8671 -21256.3666 -19582.0375 150.4269 -164.1577 -98.9219 54529.0686 -0.7149 -0.3165
ENERGY: 125000 2.8435 6.6599 0.8451 0.0000 -25567.8082 4249.7138 0.0000 0.0000 1654.2666 -19653.4794 148.4821 -21307.7460 -19648.8896 150.7553 88.2205 174.6106 54353.3679 0.2968 0.4608
TCL: Running 50000 steps at 180 kelvin.
TCL: Setting parameter langevinTemp to 180
TCL: Running for 50000 steps
ETITLE: TS BOND ANGLE DIHED IMPRP ELECT VDW BOUNDARY MISC KINETIC TOTAL TEMP POTENTIAL TOTAL3 TEMPAVG PRESSURE GPRESSURE VOLUME PRESSAVG GPRESSAVG
ENERGY: 125000 2.8435 6.6599 0.8451 0.0000 -25567.8082 4249.7138 0.0000 0.0000 1653.4476 -19654.2984 148.4086 -21307.7460 -19651.0676 148.4086 113.1214 174.3826 54353.3679 113.1214 174.3826
ENERGY: 135000 0.3201 9.8860 1.7879 0.0000 -24675.3725 3867.3350 0.0000 0.0000 1965.9795 -18830.0640 176.4605 -20796.0435 -18827.9316 178.5267 -600.0072 -561.3136 55008.5859 2.7823 2.3197
ENERGY: 145000 1.7655 10.6207 2.2637 0.0000 -24707.8510 3939.4653 0.0000 0.0000 1950.5747 -18803.1612 175.0778 -20753.7359 -18799.4600 179.5732 -86.9703 -45.8319 54350.9954 3.0148 3.1261
ENERGY: 155000 1.3439 8.4818 1.7953 0.0000 -24839.1569 4024.2315 0.0000 0.0000 2026.9848 -18776.3195 181.9362 -20803.3044 -18772.8497 180.1546 184.0411 236.2490 54193.5863 6.6759 6.9699
ENERGY: 165000 1.8428 5.7123 2.4192 0.0000 -24798.5801 4015.1823 0.0000 0.0000 2016.9359 -18756.4876 181.0342 -20773.4235 -18752.5236 178.8509 145.0112 236.8350 54443.6435 -1.7587 -1.7350
ENERGY: 175000 0.5745 9.6545 0.7158 0.0000 -24795.5570 3991.3202 0.0000 0.0000 1981.1419 -18812.1501 177.8214 -20793.2920 -18807.3296 180.7323 11.1441 55.3968 54743.9573 2.5140 2.4317
TCL: Running 50000 steps at 210 kelvin.
TCL: Setting parameter langevinTemp to 210
TCL: Running for 50000 steps
ETITLE: TS BOND ANGLE DIHED IMPRP ELECT VDW BOUNDARY MISC KINETIC TOTAL TEMP POTENTIAL TOTAL3 TEMPAVG PRESSURE GPRESSURE VOLUME PRESSAVG GPRESSAVG
ENERGY: 175000 0.5745 9.6545 0.7158 0.0000 -24795.5570 3991.3202 0.0000 0.0000 1980.2007 -18813.0913 177.7370 -20793.2920 -18809.6749 177.7370 -6.2737 54.9699 54743.9573 -6.2737 54.9699
ENERGY: 185000 1.5450 8.0591 2.5384 0.0000 -23868.1786 3849.5609 0.0000 0.0000 2333.2868 -17673.1885 209.4289 -20006.4752 -17667.8125 209.9872 895.4022 955.2676 54475.6347 6.1525 5.3520
ENERGY: 195000 2.8438 5.5358 1.3186 0.0000 -23777.7143 3723.1578 0.0000 0.0000 2377.0104 -17667.8478 213.3534 -20044.8582 -17662.2991 210.0933 293.7754 359.2009 54478.9065 0.8119 1.0329
ENERGY: 205000 1.1439 7.5042 2.7643 0.0000 -23501.1052 3502.6381 0.0000 0.0000 2323.9388 -17663.1159 208.5899 -19987.0547 -17656.2836 209.7058 -433.2555 -355.4005 54391.6213 2.8062 2.4772
ENERGY: 215000 0.4328 8.8436 2.2077 0.0000 -23462.0200 3505.3471 0.0000 0.0000 2356.1319 -17589.0570 211.4794 -19945.1889 -17583.6111 210.7836 -405.4676 -319.0516 54570.3058 3.7362 4.0917
ENERGY: 225000 1.2362 10.2182 1.2984 0.0000 -23568.5016 3608.4286 0.0000 0.0000 2366.6453 -17580.6749 212.4231 -19947.3202 -17573.3893 209.5470 77.7314 130.3868 54681.5383 4.1358 4.4031
TCL: Running 50000 steps at 240 kelvin.
TCL: Setting parameter langevinTemp to 240
TCL: Running for 50000 steps
ETITLE: TS BOND ANGLE DIHED IMPRP ELECT VDW BOUNDARY MISC KINETIC TOTAL TEMP POTENTIAL TOTAL3 TEMPAVG PRESSURE GPRESSURE VOLUME PRESSAVG GPRESSAVG
ENERGY: 225000 1.2362 10.2182 1.2984 0.0000 -23568.5016 3608.4286 0.0000 0.0000 2365.4477 -17581.8725 212.3156 -19947.3202 -17577.9348 212.3156 54.2375 131.7597 54681.5383 54.2375 131.7597
ENERGY: 235000 2.8207 9.4750 2.7222 0.0000 -22346.3866 3212.3324 0.0000 0.0000 2673.9808 -16445.0555 240.0086 -19119.0363 -16438.9169 239.0007 -197.0319 -104.3629 55053.7501 1.3656 1.2420
ENERGY: 245000 3.8156 8.8781 2.2271 0.0000 -22532.3717 3383.7407 0.0000 0.0000 2665.7519 -16467.9583 239.2700 -19133.7102 -16462.2036 240.0569 197.1495 320.2901 55397.3056 1.1255 1.1621
ENERGY: 255000 1.0003 9.3137 0.8729 0.0000 -22533.4793 3423.7025 0.0000 0.0000 2650.3535 -16448.2365 237.8879 -19098.5900 -16444.2843 239.8205 531.1320 661.7636 55469.7739 3.1517 3.4318
ENERGY: 265000 6.8833 13.6859 3.5775 0.0000 -22290.2518 3219.5738 0.0000 0.0000 2665.1484 -16381.3828 239.2159 -19046.5312 -16374.7293 239.4561 -146.9026 -51.0344 55218.5147 0.7920 1.0151
ENERGY: 275000 7.0371 9.7324 1.4655 0.0000 -22282.5627 3195.9987 0.0000 0.0000 2686.9110 -16381.4180 241.1692 -19068.3290 -16374.4738 239.8995 -383.7954 -298.8464 55298.3385 0.7959 0.7645
TCL: Running 50000 steps at 270 kelvin.
TCL: Setting parameter langevinTemp to 270
TCL: Running for 50000 steps
ETITLE: TS BOND ANGLE DIHED IMPRP ELECT VDW BOUNDARY MISC KINETIC TOTAL TEMP POTENTIAL TOTAL3 TEMPAVG PRESSURE GPRESSURE VOLUME PRESSAVG GPRESSAVG
ENERGY: 275000 7.0371 9.7324 1.4655 0.0000 -22282.5627 3195.9987 0.0000 0.0000 2685.6060 -16382.7231 241.0521 -19068.3290 -16378.8442 241.0521 -385.3676 -298.3992 55298.3385 -385.3676 -298.3992
ENERGY: 285000 3.3077 10.1622 1.5266 0.0000 -21076.4989 2879.5196 0.0000 0.0000 2986.8811 -15195.1018 268.0936 -18181.9829 -15190.7426 271.4376 -346.8412 -204.8674 56622.0211 -0.4034 -0.5341
ENERGY: 295000 1.3768 14.7694 4.2782 0.0000 -21259.7352 2943.8940 0.0000 0.0000 2984.5809 -15310.8358 267.8872 -18295.4167 -15304.2751 269.8510 -101.1104 9.2240 56050.3735 -1.0930 -1.0208
ENERGY: 305000 4.0420 9.3271 1.1757 0.0000 -21258.2708 2869.4508 0.0000 0.0000 3043.5190 -15330.7562 273.1773 -18374.2753 -15327.2853 268.7408 -556.5898 -439.3594 56168.5614 2.7147 2.7179
ENERGY: 315000 0.9556 8.4225 2.9182 0.0000 -21219.8973 2913.6412 0.0000 0.0000 3102.4552 -15191.5047 278.4672 -18293.9599 -15183.7939 271.3899 -200.0674 -95.4304 56338.4772 -1.2578 -1.4504
ENERGY: 325000 3.8990 9.5479 1.9814 0.0000 -21158.2115 2873.0453 0.0000 0.0000 3021.5107 -15248.2272 271.2019 -18269.7379 -15243.9860 270.9370 -303.8472 -215.7741 56131.1644 -0.8882 -1.6239
TCL: Running 1000000 steps at 300 kelvin.
TCL: Setting parameter langevinTemp to 300
TCL: Running for 1000000 steps
ETITLE: TS BOND ANGLE DIHED IMPRP ELECT VDW BOUNDARY MISC KINETIC TOTAL TEMP POTENTIAL TOTAL3 TEMPAVG PRESSURE GPRESSURE VOLUME PRESSAVG GPRESSAVG
ENERGY: 325000 3.8990 9.5479 1.9814 0.0000 -21158.2115 2873.0453 0.0000 0.0000 3020.0194 -15249.7184 271.0680 -18269.7379 -15245.6346 271.0680 -311.7518 -214.3802 56131.1644 -311.7518 -214.3802
ENERGY: 525000 1.7687 10.0171 1.5837 0.0000 -20196.5936 2704.1126 0.0000 0.0000 3382.7391 -14096.3723 303.6247 -17479.1114 -14091.1204 299.6360 -36.8774 21.8836 57809.8542 3.4846 3.3350
ENERGY: 725000 0.1887 17.0355 1.7962 0.0000 -20231.3353 2759.3867 0.0000 0.0000 3365.6198 -14087.3085 302.0881 -17452.9283 -14080.9882 299.9462 249.7678 315.1632 58180.8643 4.7989 4.7432
ENERGY: 925000 1.7035 13.9263 3.2815 0.0000 -20133.8763 2609.4058 0.0000 0.0000 3294.0697 -14211.4894 295.6660 -17505.5592 -14205.4966 301.1427 -501.6427 -426.2365 57727.7435 5.0534 5.5186
ENERGY: 1125000 2.9510 7.5990 3.2768 0.0000 -20298.6823 2681.7337 0.0000 0.0000 3351.1686 -14251.9532 300.7910 -17603.1218 -14245.4185 301.5486 -279.3539 -180.6006 57630.8308 2.3722 2.4323
ENERGY: 1325000 3.6563 13.6408 2.0519 0.0000 -20009.8375 2554.1006 0.0000 0.0000 3282.8030 -14153.5849 294.6547 -17436.3879 -14146.3330 300.2488 -772.9001 -677.9906 58181.3864 5.9158 6.0224
TCL: Exiting due to exit command.
