Info: SIMULATION PARAMETERS:
Info: TIMESTEP               1
Info: NUMBER OF STEPS        0
Info: STEPS PER CYCLE        10
Info: PERIODIC CELL BASIS 1  30 0 0
Info: PERIODIC CELL BASIS 2  0 30 0
Info: PERIODIC CELL BASIS 3  0 0 30
Info: PERIODIC CELL CENTER   0 0 0
Info: WRAPPING ALL CLUSTERS AROUND PERIODIC BOUNDARIES ON OUTPUT.
Info: FIRST LDB TIMESTEP     50
Info: LAST LDB TIMESTEP     -1
Info: HOM BACKGROUND SCALING 1
Info: MIN ATOMS PER PATCH    40
Info: EMPTY PATCH LOAD       40 ATOMS
Info: INITIAL TEMPERATURE    298
Info: CENTER OF MASS MOVING INITIALLY? NO
Info: DIELECTRIC             1
Info: EXCLUDE                SCALED ONE-FOUR
Info: 1-4 ELECTROSTATICS SCALED BY 1
Info: MODIFIED 1-4 VDW PARAMETERS WILL BE USED
Info: DCD FILENAME           output.dcd
Info: DCD FREQUENCY          10000
Info: DCD FIRST STEP         10000
Info: DCD FILE WILL CONTAIN UNIT CELL DATA
Info: NO EXTENDED SYSTEM TRAJECTORY OUTPUT
Info: NO VELOCITY DCD OUTPUT
Info: NO FORCE DCD OUTPUT
Info: OUTPUT FILENAME        output
Info: BINARY OUTPUT FILES WILL BE USED
Info: NO RESTART FILE
Info: SWITCHING ACTIVE
Info: SWITCHING ON           10
Info: SWITCHING OFF          12
Info: PAIRLIST DISTANCE      14
Info: PAIRLIST SHRINK RATE   0.01
Info: PAIRLIST GROW RATE     0.01
Info: PAIRLIST TRIGGER       0.3
Info: PAIRLISTS PER CYCLE    2
Info: PAIRLISTS ENABLED
Info: MARGIN                 0
Info: HYDROGEN GROUP CUTOFF  2.5
Info: PATCH DIMENSION        16.5
Info: ENERGY OUTPUT STEPS    10000
Info: ENERGY EVALUATION STEPS    10000
Info: OUTPUT ENERGY PRECISION 4
Info: CROSSTERM ENERGY INCLUDED IN DIHEDRAL
Info: TIMING OUTPUT STEPS    10000
Info: LANGEVIN DYNAMICS ACTIVE
Info: LANGEVIN TEMPERATURE   298
Info: LANGEVIN USING BBK INTEGRATOR
Info: LANGEVIN DAMPING COEFFICIENT IS 0.5 INVERSE PS
Info: LANGEVIN DYNAMICS NOT APPLIED TO HYDROGENS
Info: MULTILEVEL SUMMATION METHOD (MSM) FOR ELECTROSTATICS ACTIVE
Info: MSM WITH C1 CUBIC INTERPOLATION AND C2 TAYLOR SPLITTING
Info: FULL ELECTROSTATIC EVALUATION FREQUENCY      1
Info: USING VERLET I (r-RESPA) MTS SCHEME.
Info: C1 SPLITTING OF LONG RANGE ELECTROSTATICS
Info: PLACING ATOMS IN PATCHES BY HYDROGEN GROUPS
Info: RIGID BONDS TO HYDROGEN : ALL
Info:         ERROR TOLERANCE : 1e-08
Info:          MAX ITERATIONS : 100
Info: RIGID WATER USING SETTLE ALGORITHM
Info: RANDOM NUMBER SEED     1740228702
Info: USE HYDROGEN BONDS?    NO
Info: COORDINATE PDB         ionized.pdb
Info: STRUCTURE FILE         ionized.psf
Info: PARAMETER file: CHARMM format!
Info: PARAMETERS             par_all27_prot_lipid.inp
Info: USING ARITHMETIC MEAN TO COMBINE L-J SIGMA PARAMETERS
Info: SUMMARY OF PARAMETERS:
Info: 180 BONDS
Info: 447 ANGLES
Info: 566 DIHEDRAL
Info: 46 IMPROPER
Info: 6 CROSSTERM
Info: 119 VDW
Info: 0 VDW_PAIRS
Info: 0 NBTHOLE_PAIRS
Info: STRUCTURE SUMMARY:
Info: 2476 ATOMS
Info: 1650 BONDS
Info: 825 ANGLES
Info: 0 DIHEDRALS
Info: 0 IMPROPERS
Info: 0 CROSSTERMS
Info: 0 EXCLUSIONS
Info: 2475 RIGID BONDS
Info: 4953 DEGREES OF FREEDOM
Info: 826 HYDROGEN GROUPS
Info: 3 ATOMS IN LARGEST HYDROGEN GROUP
Info: 826 MIGRATION GROUPS
Info: 3 ATOMS IN LARGEST MIGRATION GROUP
Info: TOTAL MASS = 14885.7 amu
Info: TOTAL CHARGE = 1 e
Info: MASS DENSITY = 0.915513 g/cm^3
Info: ATOM DENSITY = 0.0917037 atoms/A^3
Info: ADDED 2475 IMPLICIT EXCLUSIONS
Info: NONBONDED TABLE R-SQUARED SPACING: 0.0625
Info: NONBONDED TABLE SIZE: 769 POINTS
Info: REMOVING COM VELOCITY -0.282255 0.104532 0.0389614
Info: MSM using C1 cubic interpolation
Info: MSM using C2 Taylor splitting function
Info: MSM block size decomposition along X is 8 grid points
Info: MSM block size decomposition along Y is 8 grid points
Info: MSM block size decomposition along Z is 8 grid points
Info: MSM grid spacing along X is 2.5 A
Info: MSM grid spacing along Y is 2.5 A
Info: MSM grid spacing along Z is 2.5 A
Info: MSM using 3 levels
Info:     level 0:  [0..11] x [0..11] x [0..11]
Info:     level 1:  [0..5] x [0..5] x [0..5]
Info:     level 2:  [0..2] x [0..2] x [0..2]
Info: MSM finished calculating stencils
Info: MSM finished creating map for grid levels
Info: MSM finished creating map for patches
Info: MSM has 9 interpolation / anterpolation objects (one per patch)
Info: MSM grid level 0 decomposed into 8 blocks ( 2 x 2 x 2 )
Info: MSM grid level 1 decomposed into 1 block ( 1 x 1 x 1 )
Info: MSM grid level 2 decomposed into 1 block ( 1 x 1 x 1 )
Info: MSM grid cutoff calculation decomposed into 783 work objects
TCL: Minimizing for 100 steps
ETITLE: TS BOND ANGLE DIHED IMPRP ELECT VDW BOUNDARY MISC KINETIC TOTAL TEMP POTENTIAL TOTAL3 TEMPAVG PRESSURE GPRESSURE VOLUME PRESSAVG GPRESSAVG
ENERGY: 0 0.0000 0.0000 0.0000 0.0000 -7348.6496 6353.7252 0.0000 0.0000 0.0000 -994.9244 0.0000 -994.9244 -994.9244 0.0000 75204.0846 46356.0499 27000.0000 75204.0846 46356.0499
ENERGY: 20 0.0000 0.0000 0.0000 0.0000 -8744.5971 644.7588 0.0000 0.0000 0.0000 -8099.8383 0.0000 -8099.8383 -8099.8383 0.0000 14286.6726 -2608.4235 27000.0000 14286.6726 -2608.4235
ENERGY: 40 0.0000 0.0000 0.0000 0.0000 -9255.3675 673.7887 0.0000 0.0000 0.0000 -8581.5788 0.0000 -8581.5788 -8581.5788 0.0000 14306.7122 -3612.4720 27000.0000 14306.7122 -3612.4720
ENERGY: 60 0.0000 0.0000 0.0000 0.0000 -9570.7002 738.1054 0.0000 0.0000 0.0000 -8832.5948 0.0000 -8832.5948 -8832.5948 0.0000 14889.9939 -3661.0809 27000.0000 14889.9939 -3661.0809
ENERGY: 80 0.0000 0.0000 0.0000 0.0000 -9709.9035 782.3669 0.0000 0.0000 0.0000 -8927.5366 0.0000 -8927.5366 -8927.5366 0.0000 15330.7253 -3519.6520 27000.0000 15330.7253 -3519.6520
ENERGY: 100 0.0000 0.0000 0.0000 0.0000 -9872.8253 825.3060 0.0000 0.0000 0.0000 -9047.5193 0.0000 -9047.5193 -9047.5193 0.0000 15763.9092 15684.7623 27000.0000 15763.9092 15684.7623
TCL: Running for 2000000 steps
ETITLE: TS BOND ANGLE DIHED IMPRP ELECT VDW BOUNDARY MISC KINETIC TOTAL TEMP POTENTIAL TOTAL3 TEMPAVG PRESSURE GPRESSURE VOLUME PRESSAVG GPRESSAVG
ENERGY: 10000 0.0000 0.0000 0.0000 0.0000 -9004.2315 838.8424 0.0000 0.0000 1384.8573 -6780.5317 281.4019 -8165.3891 -6779.3666 256.8388 -1949.8490 -1949.5972 27000.0000 -1719.7843 -1719.8873
ENERGY: 410000 0.0000 0.0000 0.0000 0.0000 -8838.6984 839.7834 0.0000 0.0000 1442.6043 -6556.3107 293.1361 -7998.9149 -6554.7235 295.8657 -1378.8019 -1373.6464 27000.0000 -1387.2580 -1387.3254
ENERGY: 810000 0.0000 0.0000 0.0000 0.0000 -8847.3592 821.2364 0.0000 0.0000 1542.0786 -6484.0443 313.3492 -8026.1228 -6484.1805 300.1964 -1552.9088 -1544.9868 27000.0000 -1325.5141 -1325.5227
ENERGY: 1200000 0.0000 0.0000 0.0000 0.0000 -8880.1938 852.0539 0.0000 0.0000 1466.5132 -6561.6268 297.9943 -8028.1399 -6561.2206 296.3746 -1355.7773 -1353.3308 27000.0000 -1340.1739 -1340.2236
ENERGY: 1600000 0.0000 0.0000 0.0000 0.0000 -8827.0723 837.9393 0.0000 0.0000 1454.1194 -6535.0136 295.4759 -7989.1330 -6533.9372 298.1931 -1287.4653 -1280.3102 27000.0000 -1291.0978 -1291.1106
ENERGY: 2000000 0.0000 0.0000 0.0000 0.0000 -8816.9573 834.9354 0.0000 0.0000 1506.8642 -6475.1578 306.1936 -7982.0219 -6475.0093 304.4965 -1256.4406 -1248.4913 27000.0000 -1267.4635 -1267.5545
