Info: SIMULATION PARAMETERS:
Info: TIMESTEP               2
Info: NUMBER OF STEPS        0
Info: STEPS PER CYCLE        10
Info: PERIODIC CELL BASIS 1  39.806 0 0
Info: PERIODIC CELL BASIS 2  0 37.835 0
Info: PERIODIC CELL BASIS 3  0 0 41.374
Info: PERIODIC CELL CENTER   0 0 0
Info: WRAPPING WATERS AROUND PERIODIC BOUNDARIES ON OUTPUT.
Info: WRAPPING ALL CLUSTERS AROUND PERIODIC BOUNDARIES ON OUTPUT.
Info: FIRST LDB TIMESTEP     50
Info: LAST LDB TIMESTEP     -1
Info: HOM BACKGROUND SCALING 1
Info: PME BACKGROUND SCALING 1
Info: MIN ATOMS PER PATCH    40
Info: EMPTY PATCH LOAD       40 ATOMS
Info: INITIAL TEMPERATURE    300
Info: CENTER OF MASS MOVING INITIALLY? NO
Info: DIELECTRIC             1
Info: EXCLUDE                SCALED ONE-FOUR
Info: 1-4 ELECTROSTATICS SCALED BY 0.833333
Info: MODIFIED 1-4 VDW PARAMETERS WILL BE USED
Info: DCD FILENAME           mobley_3775790_min.dcd
Info: DCD FREQUENCY          5000
Info: DCD FIRST STEP         5000
Info: DCD FILE WILL CONTAIN UNIT CELL DATA
Info: XST FILENAME           mobley_3775790_min.xst
Info: XST FREQUENCY          5000
Info: NO VELOCITY DCD OUTPUT
Info: NO FORCE DCD OUTPUT
Info: OUTPUT FILENAME        mobley_3775790_min
Info: BINARY OUTPUT FILES WILL BE USED
Info: RESTART FILENAME       mobley_3775790_min.restart
Info: RESTART FREQUENCY      5000
Info: BINARY RESTART FILES WILL BE USED
Info: CUTOFF                 9
Info: PAIRLIST DISTANCE      11
Info: PAIRLIST SHRINK RATE   0.01
Info: PAIRLIST GROW RATE     0.01
Info: PAIRLIST TRIGGER       0.3
Info: PAIRLISTS PER CYCLE    2
Info: PAIRLISTS ENABLED
Info: MARGIN                 8
Info: HYDROGEN GROUP CUTOFF  2.5
Info: PATCH DIMENSION        21.5
Info: ENERGY OUTPUT STEPS    5000
Info: ENERGY EVALUATION STEPS    5000
Info: OUTPUT ENERGY PRECISION 4
Info: CROSSTERM ENERGY INCLUDED IN DIHEDRAL
Info: TIMING OUTPUT STEPS    50000
Info: PRESSURE OUTPUT STEPS  5000
Info: LANGEVIN DYNAMICS ACTIVE
Info: LANGEVIN TEMPERATURE   300
Info: LANGEVIN USING BBK INTEGRATOR
Info: LANGEVIN DAMPING COEFFICIENT IS 1 INVERSE PS
Info: LANGEVIN DYNAMICS APPLIED TO HYDROGENS
Info: LANGEVIN PISTON PRESSURE CONTROL ACTIVE
Info:        TARGET PRESSURE IS 1.01325 BAR
Info:     OSCILLATION PERIOD IS 50 FS
Info:             DECAY TIME IS 25 FS
Info:     PISTON TEMPERATURE IS 300 K
Info:       PRESSURE CONTROL IS GROUP-BASED
Info:    INITIAL STRAIN RATE IS 0 0 0
Info:       CELL FLUCTUATION IS ISOTROPIC
Info: PARTICLE MESH EWALD (PME) ACTIVE
Info: PME TOLERANCE               1e-06
Info: PME EWALD COEFFICIENT       0.348832
Info: PME INTERPOLATION ORDER     4
Info: PME GRID DIMENSIONS         40 40 44
Info: PME MAXIMUM GRID SPACING    1
Info: FULL ELECTROSTATIC EVALUATION FREQUENCY      2
Info: USING VERLET I (r-RESPA) MTS SCHEME.
Info: C1 SPLITTING OF LONG RANGE ELECTROSTATICS
Info: PLACING ATOMS IN PATCHES BY HYDROGEN GROUPS
Info: RIGID BONDS TO HYDROGEN : ALL
Info:         ERROR TOLERANCE : 1e-08
Info:          MAX ITERATIONS : 100
Info: RIGID WATER USING SETTLE ALGORITHM
Info: RANDOM NUMBER SEED     1741329835
Info: USE HYDROGEN BONDS?    NO
Info: Using AMBER format force field!
Info: AMBER PARM FILE        mobley_3775790.prmtop
Info: COORDINATE PDB         mobley_3775790.pdb
Info: Exclusions will be read from PARM file!
Info: SCNB (VDW SCALING)     2
Info: USING ARITHMETIC MEAN TO COMBINE L-J SIGMA PARAMETERS
Info: SUMMARY OF PARAMETERS:
Info: 9 BONDS
Info: 10 ANGLES
Info:   10 HARMONIC
Info:   0 COSINE-BASED
Info: 3 DIHEDRAL
Info: 0 IMPROPER
Info: 0 CROSSTERM
Info: 0 VDW
Info: 36 VDW_PAIRS
Info: 0 NBTHOLE_PAIRS
Info: STRUCTURE SUMMARY:
Info: 4441 ATOMS
Info: 4441 BONDS
Info: 21 ANGLES
Info: 26 DIHEDRALS
Info: 0 IMPROPERS
Info: 0 CROSSTERMS
Info: 4483 EXCLUSIONS
Info: 4435 RIGID BONDS
Info: 8888 DEGREES OF FREEDOM
Info: 1482 HYDROGEN GROUPS
Info: 4 ATOMS IN LARGEST HYDROGEN GROUP
Info: 1482 MIGRATION GROUPS
Info: 4 ATOMS IN LARGEST MIGRATION GROUP
Info: TOTAL MASS = 26672.7 amu
Info: TOTAL CHARGE = -1.49012e-08 e
Info: MASS DENSITY = 0.710816 g/cm^3
Info: ATOM DENSITY = 0.0712707 atoms/A^3
Info: ADDED 0 IMPLICIT EXCLUSIONS
Info: NONBONDED TABLE R-SQUARED SPACING: 0.0625
Info: NONBONDED TABLE SIZE: 705 POINTS
Info: REMOVING COM VELOCITY 0.0825687 0.114825 0.0850571
TCL: Minimizing for 2000 steps
ETITLE: TS BOND ANGLE DIHED IMPRP ELECT VDW BOUNDARY MISC KINETIC TOTAL TEMP POTENTIAL TOTAL3 TEMPAVG PRESSURE GPRESSURE VOLUME PRESSAVG GPRESSAVG
ENERGY: 0 0.2061 4.5600 0.0001 0.0000 -13815.8785 1610.6714 0.0000 0.0000 0.0000 -12200.4409 0.0000 -12200.4409 -12200.4409 0.0000 11171.5097 -15327.7272 62311.7269 11171.5097 -15327.7272
ENERGY: 400 4.8927 6.0219 0.7306 0.0000 -18578.9129 2695.8321 0.0000 0.0000 0.0000 -15871.4356 0.0000 -15871.4356 -15871.4356 0.0000 15504.1364 15651.3125 62311.7269 15504.1364 15651.3125
ENERGY: 800 1.3478 3.4213 0.2486 0.0000 -19507.7948 3150.1919 0.0000 0.0000 0.0000 -16352.5852 0.0000 -16352.5852 -16352.5852 0.0000 17781.5405 17884.1542 62311.7269 17781.5405 17884.1542
ENERGY: 1200 0.5634 3.6654 0.0995 0.0000 -19956.1327 3356.9361 0.0000 0.0000 0.0000 -16594.8683 0.0000 -16594.8683 -16594.8683 0.0000 18867.1094 18981.5501 62311.7269 18867.1094 18981.5501
ENERGY: 1600 0.6480 3.3179 0.1968 0.0000 -20156.2883 3447.4703 0.0000 0.0000 0.0000 -16704.6554 0.0000 -16704.6554 -16704.6554 0.0000 19380.7313 19483.6002 62311.7269 19380.7313 19483.6002
ENERGY: 2000 0.4396 3.4113 0.1292 0.0000 -20267.6366 3497.6026 0.0000 0.0000 0.0000 -16766.0539 0.0000 -16766.0539 -16766.0539 0.0000 19666.1273 19765.8171 62311.7269 19666.1273 19765.8171
TCL: Exiting due to exit command.
Info: NAMD 3.0.1 for Linux-x86_64-multicore
Info: Please visit http://www.ks.uiuc.edu/Research/namd/
Info: for updates, documentation, and support information.
Info: Please cite Phillips et al., J. Chem. Phys. 153:044130 (2020) doi:10.1063/5.0014475
Info: in all publications reporting results obtained with NAMD.
Info: Based on Charm++/Converse 80000 for multicore-linux-x86_64-gcc
Info: Built Mon Oct 14 11:11:06 CDT 2024 by dhardy on athine.ks.uiuc.edu
Info: 1 NAMD  3.0.1  Linux-x86_64-multicore  16    k012  z5358697
Info: Running on 16 processors, 1 nodes, 1 physical nodes.
Info: CPU topology information available.
Info: Charm++/Converse parallel runtime startup completed at 0.0106298 s
Info: 1043.45 MB of memory in use based on /proc/self/stat
Info: Configuration file is mobley_3775790_equil.namd
Info: Working in the current directory /srv/scratch/z5358697/prod_prep_4/3775790
TCL: Running 25000 steps at 30 kelvin.
TCL: Suspending until startup complete.
Info: SIMULATION PARAMETERS:
Info: TIMESTEP               2
Info: NUMBER OF STEPS        0
Info: STEPS PER CYCLE        10
Info: PERIODIC CELL BASIS 1  39.806 0 0
Info: PERIODIC CELL BASIS 2  0 37.835 0
Info: PERIODIC CELL BASIS 3  0 0 41.374
Info: PERIODIC CELL CENTER   0 0 0
Info: WRAPPING WATERS AROUND PERIODIC BOUNDARIES ON OUTPUT.
Info: WRAPPING ALL CLUSTERS AROUND PERIODIC BOUNDARIES ON OUTPUT.
Info: FIRST LDB TIMESTEP     50
Info: LAST LDB TIMESTEP     -1
Info: HOM BACKGROUND SCALING 1
Info: PME BACKGROUND SCALING 1
Info: MIN ATOMS PER PATCH    40
Info: EMPTY PATCH LOAD       40 ATOMS
Info: INITIAL TEMPERATURE    300
Info: CENTER OF MASS MOVING INITIALLY? NO
Info: DIELECTRIC             1
Info: EXCLUDE                SCALED ONE-FOUR
Info: 1-4 ELECTROSTATICS SCALED BY 0.833333
Info: MODIFIED 1-4 VDW PARAMETERS WILL BE USED
Info: DCD FILENAME           mobley_3775790_equil.dcd
Info: DCD FREQUENCY          5000
Info: DCD FIRST STEP         5000
Info: DCD FILE WILL CONTAIN UNIT CELL DATA
Info: XST FILENAME           mobley_3775790_equil.xst
Info: XST FREQUENCY          5000
Info: NO VELOCITY DCD OUTPUT
Info: NO FORCE DCD OUTPUT
Info: OUTPUT FILENAME        mobley_3775790_equil
Info: BINARY OUTPUT FILES WILL BE USED
Info: RESTART FILENAME       mobley_3775790_equil.restart
Info: RESTART FREQUENCY      5000
Info: BINARY RESTART FILES WILL BE USED
Info: CUTOFF                 9
Info: PAIRLIST DISTANCE      11
Info: PAIRLIST SHRINK RATE   0.01
Info: PAIRLIST GROW RATE     0.01
Info: PAIRLIST TRIGGER       0.3
Info: PAIRLISTS PER CYCLE    2
Info: PAIRLISTS ENABLED
Info: MARGIN                 8
Info: HYDROGEN GROUP CUTOFF  2.5
Info: PATCH DIMENSION        21.5
Info: ENERGY OUTPUT STEPS    5000
Info: ENERGY EVALUATION STEPS    5000
Info: OUTPUT ENERGY PRECISION 4
Info: CROSSTERM ENERGY INCLUDED IN DIHEDRAL
Info: TIMING OUTPUT STEPS    50000
Info: PRESSURE OUTPUT STEPS  5000
Info: LANGEVIN DYNAMICS ACTIVE
Info: LANGEVIN TEMPERATURE   30
Info: LANGEVIN USING BBK INTEGRATOR
Info: LANGEVIN DAMPING COEFFICIENT IS 1 INVERSE PS
Info: LANGEVIN DYNAMICS APPLIED TO HYDROGENS
Info: LANGEVIN PISTON PRESSURE CONTROL ACTIVE
Info:        TARGET PRESSURE IS 1.01325 BAR
Info:     OSCILLATION PERIOD IS 50 FS
Info:             DECAY TIME IS 25 FS
Info:     PISTON TEMPERATURE IS 300 K
Info:       PRESSURE CONTROL IS GROUP-BASED
Info:    INITIAL STRAIN RATE IS 0 0 0
Info:       CELL FLUCTUATION IS ISOTROPIC
Info: PARTICLE MESH EWALD (PME) ACTIVE
Info: PME TOLERANCE               1e-06
Info: PME EWALD COEFFICIENT       0.348832
Info: PME INTERPOLATION ORDER     4
Info: PME GRID DIMENSIONS         40 40 44
Info: PME MAXIMUM GRID SPACING    1
Info: FULL ELECTROSTATIC EVALUATION FREQUENCY      2
Info: USING VERLET I (r-RESPA) MTS SCHEME.
Info: C1 SPLITTING OF LONG RANGE ELECTROSTATICS
Info: PLACING ATOMS IN PATCHES BY HYDROGEN GROUPS
Info: RIGID BONDS TO HYDROGEN : ALL
Info:         ERROR TOLERANCE : 1e-08
Info:          MAX ITERATIONS : 100
Info: RIGID WATER USING SETTLE ALGORITHM
Info: RANDOM NUMBER SEED     1741329849
Info: USE HYDROGEN BONDS?    NO
Info: Using AMBER format force field!
Info: AMBER PARM FILE        mobley_3775790.prmtop
Info: COORDINATE PDB         mobley_3775790.pdb
Info: Exclusions will be read from PARM file!
Info: SCNB (VDW SCALING)     2
Info: USING ARITHMETIC MEAN TO COMBINE L-J SIGMA PARAMETERS
Info: BINARY COORDINATES     mobley_3775790_min.coor
Info: SUMMARY OF PARAMETERS:
Info: 9 BONDS
Info: 10 ANGLES
Info:   10 HARMONIC
Info:   0 COSINE-BASED
Info: 3 DIHEDRAL
Info: 0 IMPROPER
Info: 0 CROSSTERM
Info: 0 VDW
Info: 36 VDW_PAIRS
Info: 0 NBTHOLE_PAIRS
Info: STRUCTURE SUMMARY:
Info: 4441 ATOMS
Info: 4441 BONDS
Info: 21 ANGLES
Info: 26 DIHEDRALS
Info: 0 IMPROPERS
Info: 0 CROSSTERMS
Info: 4483 EXCLUSIONS
Info: 4435 RIGID BONDS
Info: 8888 DEGREES OF FREEDOM
Info: 1482 HYDROGEN GROUPS
Info: 4 ATOMS IN LARGEST HYDROGEN GROUP
Info: 1482 MIGRATION GROUPS
Info: 4 ATOMS IN LARGEST MIGRATION GROUP
Info: TOTAL MASS = 26672.7 amu
Info: TOTAL CHARGE = -1.49012e-08 e
Info: MASS DENSITY = 0.710816 g/cm^3
Info: ATOM DENSITY = 0.0712707 atoms/A^3
Info: ADDED 0 IMPLICIT EXCLUSIONS
Info: NONBONDED TABLE R-SQUARED SPACING: 0.0625
Info: NONBONDED TABLE SIZE: 705 POINTS
Info: REMOVING COM VELOCITY 0.248403 0.225406 -0.135221
TCL: Running for 25000 steps
ETITLE: TS BOND ANGLE DIHED IMPRP ELECT VDW BOUNDARY MISC KINETIC TOTAL TEMP POTENTIAL TOTAL3 TEMPAVG PRESSURE GPRESSURE VOLUME PRESSAVG GPRESSAVG
ENERGY: 0 0.4396 3.4113 0.1292 0.0000 -20267.6366 3497.6026 0.0000 0.0000 2672.9700 -14093.0839 302.6777 -16766.0539 -14092.5763 302.6777 285.7803 312.8390 62311.7269 285.7803 312.8390
ENERGY: 5000 0.7831 3.6739 0.0760 0.0000 -21301.5606 3656.7389 0.0000 0.0000 261.0423 -17379.2463 29.5595 -17640.2886 -17378.7675 48.5426 -163.0058 -100.0055 42735.5006 -0.9095 -0.9791
ENERGY: 10000 1.2900 3.0139 0.5810 0.0000 -21337.8699 3669.5251 0.0000 0.0000 264.2455 -17399.2144 29.9222 -17663.4599 -17398.3327 30.1320 -166.5001 -94.9683 42687.4595 0.1830 0.1903
ENERGY: 15000 0.3382 3.6940 0.2006 0.0000 -21177.6472 3496.5531 0.0000 0.0000 266.3720 -17410.4893 30.1630 -17676.8613 -17409.6211 30.1358 -1200.8846 -1143.2472 42983.3552 4.5303 4.4433
ENERGY: 20000 0.8154 3.3310 0.0751 0.0000 -21307.9979 3623.4300 0.0000 0.0000 271.3073 -17409.0391 30.7219 -17680.3463 -17408.3625 30.0016 -435.5891 -367.3992 42709.0304 3.0159 3.0135
ENERGY: 25000 0.9202 3.4324 0.1211 0.0000 -21365.0095 3665.4318 0.0000 0.0000 267.2830 -17427.8210 30.2662 -17695.1040 -17426.7420 30.2069 -263.7044 -206.1000 42706.0766 4.8962 4.8992
TCL: Running 25000 steps at 60 kelvin.
TCL: Setting parameter langevinTemp to 60
TCL: Running for 25000 steps
ETITLE: TS BOND ANGLE DIHED IMPRP ELECT VDW BOUNDARY MISC KINETIC TOTAL TEMP POTENTIAL TOTAL3 TEMPAVG PRESSURE GPRESSURE VOLUME PRESSAVG GPRESSAVG
ENERGY: 25000 0.9202 3.4324 0.1211 0.0000 -21365.0095 3665.4318 0.0000 0.0000 267.1458 -17427.9582 30.2506 -17695.1040 -17427.4071 30.2506 -266.5935 -205.9222 42706.0766 -266.5935 -205.9222
ENERGY: 30000 0.5346 4.2632 0.4620 0.0000 -21158.6511 3706.6926 0.0000 0.0000 520.1416 -16926.5571 58.8990 -17446.6987 -16925.6873 57.6642 650.9583 731.4070 42618.1343 3.5723 3.6374
ENERGY: 35000 0.3308 3.6779 0.3747 0.0000 -21086.4791 3591.1701 0.0000 0.0000 535.6875 -16955.2381 60.6594 -17490.9256 -16953.8276 60.4954 -234.0050 -146.3473 43000.1893 -1.8083 -1.7700
ENERGY: 40000 1.1546 3.9604 0.7420 0.0000 -21068.7209 3552.9496 0.0000 0.0000 529.6246 -16980.2897 59.9728 -17509.9143 -16979.1443 60.3813 -440.9379 -369.9114 42930.3194 1.1991 1.2360
ENERGY: 45000 0.8053 3.4137 0.6338 0.0000 -21341.2689 3794.1651 0.0000 0.0000 531.2839 -17010.9671 60.1607 -17542.2510 -17009.4976 60.0326 952.6597 1008.2884 42498.4087 7.2735 7.3183
ENERGY: 50000 1.1569 3.9182 0.4140 0.0000 -21240.2039 3689.3299 0.0000 0.0000 528.8864 -17016.4985 59.8892 -17545.3850 -17014.8351 60.0581 263.0893 350.9070 42666.4280 2.0685 2.1218
TCL: Running 25000 steps at 90 kelvin.
TCL: Setting parameter langevinTemp to 90
TCL: Running for 25000 steps
ETITLE: TS BOND ANGLE DIHED IMPRP ELECT VDW BOUNDARY MISC KINETIC TOTAL TEMP POTENTIAL TOTAL3 TEMPAVG PRESSURE GPRESSURE VOLUME PRESSAVG GPRESSAVG
ENERGY: 50000 1.1569 3.9182 0.4140 0.0000 -21240.2039 3689.3299 0.0000 0.0000 528.6243 -17016.7607 59.8595 -17545.3850 -17015.6504 59.8595 284.0949 350.6705 42666.4280 284.0949 350.6705
ENERGY: 55000 0.8961 3.6972 2.4456 0.0000 -20760.5700 3493.1832 0.0000 0.0000 807.3150 -16453.0330 91.4175 -17260.3479 -16451.3506 87.6610 -228.6228 -161.3156 43257.1416 0.5404 0.8511
ENERGY: 60000 0.7212 4.1815 0.3975 0.0000 -20586.0362 3294.5879 0.0000 0.0000 796.3633 -16489.7847 90.1774 -17286.1480 -16487.9971 90.4324 -1276.7753 -1204.7159 43410.4345 4.0842 4.1555
ENERGY: 65000 0.4160 4.1569 0.1996 0.0000 -20827.6550 3488.9222 0.0000 0.0000 822.7281 -16511.2323 93.1628 -17333.9604 -16508.9549 90.0705 -380.9901 -325.5948 43138.0140 5.4640 6.0630
ENERGY: 70000 0.4219 5.6226 0.8523 0.0000 -20794.0352 3452.9450 0.0000 0.0000 779.4032 -16554.7900 88.2569 -17334.1933 -16553.5348 90.8343 -606.2193 -523.9926 43151.8092 4.5119 4.1871
ENERGY: 75000 0.5396 3.8255 0.9208 0.0000 -20795.5557 3441.4380 0.0000 0.0000 809.3599 -16539.4719 91.6491 -17348.8318 -16537.4994 90.1043 -628.8043 -561.6796 43103.7300 0.0069 0.0657
TCL: Running 25000 steps at 120 kelvin.
TCL: Setting parameter langevinTemp to 120
TCL: Running for 25000 steps
ETITLE: TS BOND ANGLE DIHED IMPRP ELECT VDW BOUNDARY MISC KINETIC TOTAL TEMP POTENTIAL TOTAL3 TEMPAVG PRESSURE GPRESSURE VOLUME PRESSAVG GPRESSAVG
ENERGY: 75000 0.5396 3.8255 0.9208 0.0000 -20795.5557 3441.4380 0.0000 0.0000 808.9665 -16539.8653 91.6045 -17348.8318 -16538.1319 91.6045 -624.2166 -561.5486 43103.7300 -624.2166 -561.5486
ENERGY: 80000 0.6338 4.8531 1.0233 0.0000 -20459.6428 3340.5413 0.0000 0.0000 1076.5031 -16036.0881 121.8994 -17112.5912 -16033.3561 117.0032 -725.8408 -634.5702 43540.7496 4.3241 4.5915
ENERGY: 85000 0.2352 5.1067 0.9014 0.0000 -20393.5685 3275.6886 0.0000 0.0000 1074.8644 -16036.7721 121.7139 -17111.6366 -16035.1333 119.6923 -991.0159 -940.1260 43491.1587 -0.0890 -0.0230
ENERGY: 90000 1.5370 4.7220 1.2768 0.0000 -20813.3278 3668.0829 0.0000 0.0000 1092.0721 -16045.6371 123.6624 -17137.7092 -16043.1322 120.0665 1349.3936 1386.8079 42631.8578 -2.4948 -2.4125
ENERGY: 95000 0.5526 7.8341 1.1543 0.0000 -20557.5236 3387.2600 0.0000 0.0000 1035.9961 -16124.7265 117.3125 -17160.7225 -16121.6854 120.7859 -425.5118 -349.5768 43191.2367 5.6383 5.9325
ENERGY: 100000 0.7389 4.8498 0.9661 0.0000 -20465.8152 3282.7710 0.0000 0.0000 1085.4315 -16091.0580 122.9104 -17176.4895 -16088.2621 120.3688 -1002.8982 -919.5141 43232.9732 4.5560 4.5963
TCL: Running 25000 steps at 150 kelvin.
TCL: Setting parameter langevinTemp to 150
TCL: Running for 25000 steps
ETITLE: TS BOND ANGLE DIHED IMPRP ELECT VDW BOUNDARY MISC KINETIC TOTAL TEMP POTENTIAL TOTAL3 TEMPAVG PRESSURE GPRESSURE VOLUME PRESSAVG GPRESSAVG
ENERGY: 100000 0.7389 4.8498 0.9661 0.0000 -20465.8152 3282.7710 0.0000 0.0000 1084.9013 -16091.5882 122.8504 -17176.4895 -16089.3161 122.8504 -979.6080 -919.0966 43232.9732 -979.6080 -919.0966
ENERGY: 105000 2.4189 4.6498 1.2448 0.0000 -20221.8620 3356.9306 0.0000 0.0000 1304.8215 -15551.7966 147.7534 -16856.6181 -15548.5290 147.1382 178.8051 205.8584 43374.0062 1.1103 1.5742
ENERGY: 110000 1.0520 5.7092 0.9531 0.0000 -20425.9905 3506.9756 0.0000 0.0000 1323.4882 -15587.8123 149.8671 -16911.3006 -15585.7638 149.9803 833.9367 936.5968 43171.3064 -2.7199 -2.7708
ENERGY: 115000 0.5100 5.7757 2.2747 0.0000 -20206.9295 3323.2468 0.0000 0.0000 1305.5947 -15569.5276 147.8409 -16875.1223 -15566.9066 148.8464 -17.3431 21.1266 43208.2297 -0.8726 -0.7429
ENERGY: 120000 1.0657 4.8519 0.8807 0.0000 -20495.1338 3599.1894 0.0000 0.0000 1320.3374 -15568.8087 149.5104 -16889.1461 -15565.7295 149.8966 1497.3396 1518.9474 42851.0290 7.7147 7.5263
ENERGY: 125000 0.6619 5.2916 0.8030 0.0000 -20326.6477 3378.9693 0.0000 0.0000 1346.1577 -15594.7643 152.4341 -16940.9220 -15592.2796 149.7087 111.9584 176.1714 43319.2415 3.4284 3.1630
TCL: Running 50000 steps at 180 kelvin.
TCL: Setting parameter langevinTemp to 180
TCL: Running for 50000 steps
ETITLE: TS BOND ANGLE DIHED IMPRP ELECT VDW BOUNDARY MISC KINETIC TOTAL TEMP POTENTIAL TOTAL3 TEMPAVG PRESSURE GPRESSURE VOLUME PRESSAVG GPRESSAVG
ENERGY: 125000 0.6619 5.2916 0.8030 0.0000 -20326.6477 3378.9693 0.0000 0.0000 1345.5015 -15595.4205 152.3598 -16940.9220 -15592.8263 152.3598 129.0853 175.3823 43319.2415 129.0853 175.3823
ENERGY: 135000 1.2499 4.5740 0.3284 0.0000 -19669.4697 3200.1719 0.0000 0.0000 1596.7784 -14866.3672 180.8136 -16463.1456 -14862.4535 179.7489 328.0750 347.6193 43405.2467 6.8188 6.5213
ENERGY: 145000 2.4022 4.1398 0.8751 0.0000 -19844.4165 3287.0929 0.0000 0.0000 1577.9357 -14971.9710 178.6799 -16549.9066 -14969.8541 180.0550 526.2087 606.5270 43341.6165 2.8419 2.9358
ENERGY: 155000 2.6107 6.2223 1.8770 0.0000 -19801.5643 3257.5313 0.0000 0.0000 1628.8306 -14904.4922 184.4430 -16533.3228 -14900.3585 180.0076 292.3247 335.0259 43636.5736 0.6955 0.4363
ENERGY: 165000 0.5855 5.2480 1.7882 0.0000 -19583.4873 3064.7937 0.0000 0.0000 1605.6203 -14905.4516 181.8148 -16511.0719 -14900.4344 180.2376 -719.2207 -670.6503 43715.5105 4.6484 5.2160
ENERGY: 175000 2.5369 4.9919 0.6703 0.0000 -19872.6616 3314.3522 0.0000 0.0000 1614.6085 -14935.5019 182.8326 -16550.1104 -14930.5655 181.3234 649.1356 752.6993 43244.1821 7.4251 7.3771
TCL: Running 50000 steps at 210 kelvin.
TCL: Setting parameter langevinTemp to 210
TCL: Running for 50000 steps
ETITLE: TS BOND ANGLE DIHED IMPRP ELECT VDW BOUNDARY MISC KINETIC TOTAL TEMP POTENTIAL TOTAL3 TEMPAVG PRESSURE GPRESSURE VOLUME PRESSAVG GPRESSAVG
ENERGY: 175000 2.5369 4.9919 0.6703 0.0000 -19872.6616 3314.3522 0.0000 0.0000 1613.7888 -14936.3216 182.7398 -16550.1104 -14933.3924 182.7398 693.2950 752.2195 43244.1821 693.2950 752.2195
ENERGY: 185000 1.8204 8.8670 3.0029 0.0000 -18822.9828 2933.6199 0.0000 0.0000 1916.5919 -13959.0807 217.0281 -15875.6727 -13954.4594 209.8687 182.4551 257.8356 43420.1373 2.6350 3.5533
ENERGY: 195000 0.6236 6.1203 1.7181 0.0000 -18726.6116 2850.7303 0.0000 0.0000 1866.9427 -14000.4767 211.4060 -15867.4194 -13996.1679 209.7636 -115.2864 -107.2172 43418.6102 2.8134 2.7700
ENERGY: 205000 2.6516 4.9324 1.6349 0.0000 -18584.6155 2731.0698 0.0000 0.0000 1913.1827 -13931.1440 216.6421 -15844.3268 -13926.7639 210.4351 -826.4091 -750.4110 43793.6864 -0.7194 -0.4729
ENERGY: 215000 2.6590 5.7475 1.1484 0.0000 -18607.4367 2739.8890 0.0000 0.0000 1874.7908 -13983.2020 212.2947 -15857.9929 -13977.0932 210.4339 -733.5968 -604.7709 43516.0387 9.1548 9.6629
ENERGY: 225000 1.2067 6.0378 2.3124 0.0000 -18848.7423 2898.3329 0.0000 0.0000 1888.3656 -14052.4870 213.8319 -15940.8526 -14049.2840 209.7952 -77.5009 5.3864 43520.8785 2.5977 2.3957
TCL: Running 50000 steps at 240 kelvin.
TCL: Setting parameter langevinTemp to 240
TCL: Running for 50000 steps
ETITLE: TS BOND ANGLE DIHED IMPRP ELECT VDW BOUNDARY MISC KINETIC TOTAL TEMP POTENTIAL TOTAL3 TEMPAVG PRESSURE GPRESSURE VOLUME PRESSAVG GPRESSAVG
ENERGY: 225000 1.2067 6.0378 2.3124 0.0000 -18848.7423 2898.3329 0.0000 0.0000 1887.4439 -14053.4086 213.7275 -15940.8526 -14049.9850 213.7275 -73.5895 5.0166 43520.8785 -73.5895 5.0166
ENERGY: 235000 2.8026 4.3513 1.3544 0.0000 -17899.2765 2738.8175 0.0000 0.0000 2115.6678 -13036.2829 239.5708 -15151.9507 -13031.1077 240.2845 918.1068 1018.7865 43536.4041 3.7125 4.0181
ENERGY: 245000 2.3375 6.7023 0.7778 0.0000 -17823.2265 2612.1222 0.0000 0.0000 2088.6440 -13112.6426 236.5107 -15201.2867 -13108.1221 240.4754 88.6473 167.7982 43776.0726 5.1770 5.0242
ENERGY: 255000 2.0955 8.6243 1.7023 0.0000 -17939.7788 2688.6204 0.0000 0.0000 2121.8676 -13116.8687 240.2728 -15238.7363 -13111.7878 241.2185 319.0199 410.5149 43564.8071 5.2104 5.3588
ENERGY: 265000 1.4652 5.9218 0.8452 0.0000 -17845.4643 2648.5793 0.0000 0.0000 2110.8689 -13077.7839 239.0274 -15188.6528 -13072.0890 239.3240 350.9001 471.3117 43467.8765 2.2952 2.1888
ENERGY: 275000 2.1826 6.1472 1.0013 0.0000 -17703.4602 2572.7885 0.0000 0.0000 2105.9185 -13015.4222 238.4668 -15121.3407 -13012.0193 240.5367 -184.8503 -86.0800 44069.3730 7.5130 7.2919
TCL: Running 50000 steps at 270 kelvin.
TCL: Setting parameter langevinTemp to 270
TCL: Running for 50000 steps
ETITLE: TS BOND ANGLE DIHED IMPRP ELECT VDW BOUNDARY MISC KINETIC TOTAL TEMP POTENTIAL TOTAL3 TEMPAVG PRESSURE GPRESSURE VOLUME PRESSAVG GPRESSAVG
ENERGY: 275000 2.1826 6.1472 1.0013 0.0000 -17703.4602 2572.7885 0.0000 0.0000 2104.8990 -13016.4417 238.3513 -15121.3407 -13012.7603 238.3513 -165.3937 -87.3097 44069.3730 -165.3937 -87.3097
ENERGY: 285000 1.7253 9.3921 2.0700 0.0000 -16920.5289 2329.6269 0.0000 0.0000 2370.7957 -12206.9188 268.4605 -14577.7145 -12202.4973 270.3876 -336.4925 -287.6641 44622.3991 6.1188 5.6688
ENERGY: 295000 0.8670 5.9161 3.3895 0.0000 -16894.0790 2336.0404 0.0000 0.0000 2349.0957 -12198.7704 266.0033 -14547.8660 -12194.7904 270.4747 -127.2397 -40.9971 44567.5668 0.5550 -0.5804
ENERGY: 305000 1.0489 8.7300 1.8620 0.0000 -16988.2592 2360.7898 0.0000 0.0000 2399.0651 -12216.7635 271.6617 -14615.8285 -12209.8624 270.2670 71.6370 128.3275 44277.7779 0.8426 0.9688
ENERGY: 315000 1.2043 7.2921 3.4587 0.0000 -16731.9189 2210.4119 0.0000 0.0000 2405.9077 -12103.6442 272.4365 -14509.5520 -12097.0539 269.3775 -762.1869 -649.7179 44869.2718 -2.7034 -2.5851
ENERGY: 325000 2.2768 4.0755 2.7324 0.0000 -16777.2255 2319.7151 0.0000 0.0000 2399.5778 -12048.8478 271.7197 -14448.4257 -12044.2165 270.7480 -157.2193 -78.7471 44935.2337 -0.6826 -0.7022
TCL: Running 1000000 steps at 300 kelvin.
TCL: Setting parameter langevinTemp to 300
TCL: Running for 1000000 steps
ETITLE: TS BOND ANGLE DIHED IMPRP ELECT VDW BOUNDARY MISC KINETIC TOTAL TEMP POTENTIAL TOTAL3 TEMPAVG PRESSURE GPRESSURE VOLUME PRESSAVG GPRESSAVG
ENERGY: 325000 2.2768 4.0755 2.7324 0.0000 -16777.2255 2319.7151 0.0000 0.0000 2398.3896 -12050.0361 271.5852 -14448.4257 -12046.8803 271.5852 -146.8507 -79.7195 44935.2337 -146.8507 -79.7195
ENERGY: 525000 1.7859 4.5640 1.8811 0.0000 -16053.4150 2148.8912 0.0000 0.0000 2589.9466 -11306.3461 293.2764 -13896.2928 -11301.8899 299.8059 -122.0700 -49.3762 46062.7589 1.5678 1.3797
ENERGY: 725000 1.1258 5.2738 2.3033 0.0000 -16088.6140 2117.7849 0.0000 0.0000 2660.4902 -11301.6359 301.2645 -13962.1261 -11293.1876 298.5884 -233.0189 -121.0366 45589.4119 0.0361 -0.4419
ENERGY: 925000 2.2279 7.2264 3.2920 0.0000 -16198.8716 2214.1012 0.0000 0.0000 2706.0720 -11265.9520 306.4261 -13972.0240 -11260.4293 298.9847 114.9483 136.8389 45962.7925 13.1992 13.4010
ENERGY: 1125000 1.3248 7.4889 1.2455 0.0000 -16124.7228 2172.4107 0.0000 0.0000 2692.8943 -11249.3586 304.9339 -13942.2529 -11244.1229 300.3030 -41.6783 66.7536 46191.7512 3.7138 3.8092
ENERGY: 1325000 2.4798 6.3126 1.3003 0.0000 -15907.8698 2085.8419 0.0000 0.0000 2614.8906 -11197.0446 296.1010 -13811.9352 -11190.1010 300.8424 -363.8558 -274.4200 46625.7424 3.2526 3.6733
TCL: Exiting due to exit command.
