Info: SIMULATION PARAMETERS:
Info: TIMESTEP               2
Info: NUMBER OF STEPS        0
Info: STEPS PER CYCLE        10
Info: PERIODIC CELL BASIS 1  39.806 0 0
Info: PERIODIC CELL BASIS 2  0 40.343 0
Info: PERIODIC CELL BASIS 3  0 0 42.04
Info: PERIODIC CELL CENTER   0 0 0
Info: WRAPPING WATERS AROUND PERIODIC BOUNDARIES ON OUTPUT.
Info: WRAPPING ALL CLUSTERS AROUND PERIODIC BOUNDARIES ON OUTPUT.
Info: FIRST LDB TIMESTEP     50
Info: LAST LDB TIMESTEP     -1
Info: HOM BACKGROUND SCALING 1
Info: PME BACKGROUND SCALING 1
Info: MIN ATOMS PER PATCH    40
Info: EMPTY PATCH LOAD       40 ATOMS
Info: INITIAL TEMPERATURE    300
Info: CENTER OF MASS MOVING INITIALLY? NO
Info: DIELECTRIC             1
Info: EXCLUDE                SCALED ONE-FOUR
Info: 1-4 ELECTROSTATICS SCALED BY 0.833333
Info: MODIFIED 1-4 VDW PARAMETERS WILL BE USED
Info: DCD FILENAME           mobley_6115639_min.dcd
Info: DCD FREQUENCY          5000
Info: DCD FIRST STEP         5000
Info: DCD FILE WILL CONTAIN UNIT CELL DATA
Info: XST FILENAME           mobley_6115639_min.xst
Info: XST FREQUENCY          5000
Info: NO VELOCITY DCD OUTPUT
Info: NO FORCE DCD OUTPUT
Info: OUTPUT FILENAME        mobley_6115639_min
Info: BINARY OUTPUT FILES WILL BE USED
Info: RESTART FILENAME       mobley_6115639_min.restart
Info: RESTART FREQUENCY      5000
Info: BINARY RESTART FILES WILL BE USED
Info: CUTOFF                 9
Info: PAIRLIST DISTANCE      11
Info: PAIRLIST SHRINK RATE   0.01
Info: PAIRLIST GROW RATE     0.01
Info: PAIRLIST TRIGGER       0.3
Info: PAIRLISTS PER CYCLE    2
Info: PAIRLISTS ENABLED
Info: MARGIN                 8
Info: HYDROGEN GROUP CUTOFF  2.5
Info: PATCH DIMENSION        21.5
Info: ENERGY OUTPUT STEPS    5000
Info: ENERGY EVALUATION STEPS    5000
Info: OUTPUT ENERGY PRECISION 4
Info: CROSSTERM ENERGY INCLUDED IN DIHEDRAL
Info: TIMING OUTPUT STEPS    50000
Info: PRESSURE OUTPUT STEPS  5000
Info: LANGEVIN DYNAMICS ACTIVE
Info: LANGEVIN TEMPERATURE   300
Info: LANGEVIN USING BBK INTEGRATOR
Info: LANGEVIN DAMPING COEFFICIENT IS 1 INVERSE PS
Info: LANGEVIN DYNAMICS APPLIED TO HYDROGENS
Info: LANGEVIN PISTON PRESSURE CONTROL ACTIVE
Info:        TARGET PRESSURE IS 1.01325 BAR
Info:     OSCILLATION PERIOD IS 50 FS
Info:             DECAY TIME IS 25 FS
Info:     PISTON TEMPERATURE IS 300 K
Info:       PRESSURE CONTROL IS GROUP-BASED
Info:    INITIAL STRAIN RATE IS 0 0 0
Info:       CELL FLUCTUATION IS ISOTROPIC
Info: PARTICLE MESH EWALD (PME) ACTIVE
Info: PME TOLERANCE               1e-06
Info: PME EWALD COEFFICIENT       0.348832
Info: PME INTERPOLATION ORDER     4
Info: PME GRID DIMENSIONS         40 44 44
Info: PME MAXIMUM GRID SPACING    1
Info: FULL ELECTROSTATIC EVALUATION FREQUENCY      2
Info: USING VERLET I (r-RESPA) MTS SCHEME.
Info: C1 SPLITTING OF LONG RANGE ELECTROSTATICS
Info: PLACING ATOMS IN PATCHES BY HYDROGEN GROUPS
Info: RIGID BONDS TO HYDROGEN : ALL
Info:         ERROR TOLERANCE : 1e-08
Info:          MAX ITERATIONS : 100
Info: RIGID WATER USING SETTLE ALGORITHM
Info: RANDOM NUMBER SEED     1741350669
Info: USE HYDROGEN BONDS?    NO
Info: Using AMBER format force field!
Info: AMBER PARM FILE        mobley_6115639.prmtop
Info: COORDINATE PDB         mobley_6115639.pdb
Info: Exclusions will be read from PARM file!
Info: SCNB (VDW SCALING)     2
Info: USING ARITHMETIC MEAN TO COMBINE L-J SIGMA PARAMETERS
Info: SUMMARY OF PARAMETERS:
Info: 6 BONDS
Info: 5 ANGLES
Info:   5 HARMONIC
Info:   0 COSINE-BASED
Info: 4 DIHEDRAL
Info: 0 IMPROPER
Info: 0 CROSSTERM
Info: 0 VDW
Info: 28 VDW_PAIRS
Info: 0 NBTHOLE_PAIRS
Info: STRUCTURE SUMMARY:
Info: 4979 ATOMS
Info: 4978 BONDS
Info: 27 ANGLES
Info: 21 DIHEDRALS
Info: 0 IMPROPERS
Info: 0 CROSSTERMS
Info: 5023 EXCLUSIONS
Info: 4971 RIGID BONDS
Info: 9966 DEGREES OF FREEDOM
Info: 1662 HYDROGEN GROUPS
Info: 4 ATOMS IN LARGEST HYDROGEN GROUP
Info: 1662 MIGRATION GROUPS
Info: 4 ATOMS IN LARGEST MIGRATION GROUP
Info: TOTAL MASS = 29938.5 amu
Info: TOTAL CHARGE = 0.000599861 e
Info: MASS DENSITY = 0.736394 g/cm^3
Info: ATOM DENSITY = 0.0737501 atoms/A^3
Info: ADDED 0 IMPLICIT EXCLUSIONS
Info: NONBONDED TABLE R-SQUARED SPACING: 0.0625
Info: NONBONDED TABLE SIZE: 705 POINTS
Info: REMOVING COM VELOCITY -0.231099 -0.0780736 0.0087612
TCL: Minimizing for 2000 steps
ETITLE: TS BOND ANGLE DIHED IMPRP ELECT VDW BOUNDARY MISC KINETIC TOTAL TEMP POTENTIAL TOTAL3 TEMPAVG PRESSURE GPRESSURE VOLUME PRESSAVG GPRESSAVG
ENERGY: 0 0.1948 0.9531 23.4287 0.0000 -15720.0840 1781.1539 0.0000 0.0000 0.0000 -13914.3535 0.0000 -13914.3535 -13914.3535 0.0000 11431.9582 -16227.6681 67511.7610 11431.9582 -16227.6681
ENERGY: 400 2.2802 3.7572 21.5954 0.0000 -20847.6081 2945.1484 0.0000 0.0000 0.0000 -17874.8268 0.0000 -17874.8268 -17874.8268 0.0000 15691.9288 15821.9736 67511.7610 15691.9288 15821.9736
ENERGY: 800 0.6512 1.0099 21.8720 0.0000 -21958.5510 3528.0428 0.0000 0.0000 0.0000 -18406.9751 0.0000 -18406.9751 -18406.9751 0.0000 18415.7888 18531.0098 67511.7610 18415.7888 18531.0098
ENERGY: 1200 0.1800 0.4400 21.8470 0.0000 -22342.1568 3668.4894 0.0000 0.0000 0.0000 -18651.2004 0.0000 -18651.2004 -18651.2004 0.0000 19041.1281 19157.2754 67511.7610 19041.1281 19157.2754
ENERGY: 1600 0.4418 1.1418 21.0121 0.0000 -22597.1846 3780.8530 0.0000 0.0000 0.0000 -18793.7359 0.0000 -18793.7359 -18793.7359 0.0000 19582.5302 19696.9934 67511.7610 19582.5302 19696.9934
ENERGY: 2000 0.2465 1.0803 21.1645 0.0000 -22760.3903 3859.1203 0.0000 0.0000 0.0000 -18878.7787 0.0000 -18878.7787 -18878.7787 0.0000 19945.5036 20054.3662 67511.7610 19945.5036 20054.3662
TCL: Exiting due to exit command.
Info: NAMD 3.0.1 for Linux-x86_64-multicore
Info: Please visit http://www.ks.uiuc.edu/Research/namd/
Info: for updates, documentation, and support information.
Info: Please cite Phillips et al., J. Chem. Phys. 153:044130 (2020) doi:10.1063/5.0014475
Info: in all publications reporting results obtained with NAMD.
Info: Based on Charm++/Converse 80000 for multicore-linux-x86_64-gcc
Info: Built Mon Oct 14 11:11:06 CDT 2024 by dhardy on athine.ks.uiuc.edu
Info: 1 NAMD  3.0.1  Linux-x86_64-multicore  16    k013  z5358697
Info: Running on 16 processors, 1 nodes, 1 physical nodes.
Info: CPU topology information available.
Info: Charm++/Converse parallel runtime startup completed at 0.0090816 s
Info: 1043.45 MB of memory in use based on /proc/self/stat
Info: Configuration file is mobley_6115639_equil.namd
Info: Working in the current directory /srv/scratch/z5358697/prod_prep_7/6115639
TCL: Running 25000 steps at 30 kelvin.
TCL: Suspending until startup complete.
Info: SIMULATION PARAMETERS:
Info: TIMESTEP               2
Info: NUMBER OF STEPS        0
Info: STEPS PER CYCLE        10
Info: PERIODIC CELL BASIS 1  39.806 0 0
Info: PERIODIC CELL BASIS 2  0 40.343 0
Info: PERIODIC CELL BASIS 3  0 0 42.04
Info: PERIODIC CELL CENTER   0 0 0
Info: WRAPPING WATERS AROUND PERIODIC BOUNDARIES ON OUTPUT.
Info: WRAPPING ALL CLUSTERS AROUND PERIODIC BOUNDARIES ON OUTPUT.
Info: FIRST LDB TIMESTEP     50
Info: LAST LDB TIMESTEP     -1
Info: HOM BACKGROUND SCALING 1
Info: PME BACKGROUND SCALING 1
Info: MIN ATOMS PER PATCH    40
Info: EMPTY PATCH LOAD       40 ATOMS
Info: INITIAL TEMPERATURE    300
Info: CENTER OF MASS MOVING INITIALLY? NO
Info: DIELECTRIC             1
Info: EXCLUDE                SCALED ONE-FOUR
Info: 1-4 ELECTROSTATICS SCALED BY 0.833333
Info: MODIFIED 1-4 VDW PARAMETERS WILL BE USED
Info: DCD FILENAME           mobley_6115639_equil.dcd
Info: DCD FREQUENCY          5000
Info: DCD FIRST STEP         5000
Info: DCD FILE WILL CONTAIN UNIT CELL DATA
Info: XST FILENAME           mobley_6115639_equil.xst
Info: XST FREQUENCY          5000
Info: NO VELOCITY DCD OUTPUT
Info: NO FORCE DCD OUTPUT
Info: OUTPUT FILENAME        mobley_6115639_equil
Info: BINARY OUTPUT FILES WILL BE USED
Info: RESTART FILENAME       mobley_6115639_equil.restart
Info: RESTART FREQUENCY      5000
Info: BINARY RESTART FILES WILL BE USED
Info: CUTOFF                 9
Info: PAIRLIST DISTANCE      11
Info: PAIRLIST SHRINK RATE   0.01
Info: PAIRLIST GROW RATE     0.01
Info: PAIRLIST TRIGGER       0.3
Info: PAIRLISTS PER CYCLE    2
Info: PAIRLISTS ENABLED
Info: MARGIN                 8
Info: HYDROGEN GROUP CUTOFF  2.5
Info: PATCH DIMENSION        21.5
Info: ENERGY OUTPUT STEPS    5000
Info: ENERGY EVALUATION STEPS    5000
Info: OUTPUT ENERGY PRECISION 4
Info: CROSSTERM ENERGY INCLUDED IN DIHEDRAL
Info: TIMING OUTPUT STEPS    50000
Info: PRESSURE OUTPUT STEPS  5000
Info: LANGEVIN DYNAMICS ACTIVE
Info: LANGEVIN TEMPERATURE   30
Info: LANGEVIN USING BBK INTEGRATOR
Info: LANGEVIN DAMPING COEFFICIENT IS 1 INVERSE PS
Info: LANGEVIN DYNAMICS APPLIED TO HYDROGENS
Info: LANGEVIN PISTON PRESSURE CONTROL ACTIVE
Info:        TARGET PRESSURE IS 1.01325 BAR
Info:     OSCILLATION PERIOD IS 50 FS
Info:             DECAY TIME IS 25 FS
Info:     PISTON TEMPERATURE IS 300 K
Info:       PRESSURE CONTROL IS GROUP-BASED
Info:    INITIAL STRAIN RATE IS 0 0 0
Info:       CELL FLUCTUATION IS ISOTROPIC
Info: PARTICLE MESH EWALD (PME) ACTIVE
Info: PME TOLERANCE               1e-06
Info: PME EWALD COEFFICIENT       0.348832
Info: PME INTERPOLATION ORDER     4
Info: PME GRID DIMENSIONS         40 44 44
Info: PME MAXIMUM GRID SPACING    1
Info: FULL ELECTROSTATIC EVALUATION FREQUENCY      2
Info: USING VERLET I (r-RESPA) MTS SCHEME.
Info: C1 SPLITTING OF LONG RANGE ELECTROSTATICS
Info: PLACING ATOMS IN PATCHES BY HYDROGEN GROUPS
Info: RIGID BONDS TO HYDROGEN : ALL
Info:         ERROR TOLERANCE : 1e-08
Info:          MAX ITERATIONS : 100
Info: RIGID WATER USING SETTLE ALGORITHM
Info: RANDOM NUMBER SEED     1741350687
Info: USE HYDROGEN BONDS?    NO
Info: Using AMBER format force field!
Info: AMBER PARM FILE        mobley_6115639.prmtop
Info: COORDINATE PDB         mobley_6115639.pdb
Info: Exclusions will be read from PARM file!
Info: SCNB (VDW SCALING)     2
Info: USING ARITHMETIC MEAN TO COMBINE L-J SIGMA PARAMETERS
Info: BINARY COORDINATES     mobley_6115639_min.coor
Info: SUMMARY OF PARAMETERS:
Info: 6 BONDS
Info: 5 ANGLES
Info:   5 HARMONIC
Info:   0 COSINE-BASED
Info: 4 DIHEDRAL
Info: 0 IMPROPER
Info: 0 CROSSTERM
Info: 0 VDW
Info: 28 VDW_PAIRS
Info: 0 NBTHOLE_PAIRS
Info: STRUCTURE SUMMARY:
Info: 4979 ATOMS
Info: 4978 BONDS
Info: 27 ANGLES
Info: 21 DIHEDRALS
Info: 0 IMPROPERS
Info: 0 CROSSTERMS
Info: 5023 EXCLUSIONS
Info: 4971 RIGID BONDS
Info: 9966 DEGREES OF FREEDOM
Info: 1662 HYDROGEN GROUPS
Info: 4 ATOMS IN LARGEST HYDROGEN GROUP
Info: 1662 MIGRATION GROUPS
Info: 4 ATOMS IN LARGEST MIGRATION GROUP
Info: TOTAL MASS = 29938.5 amu
Info: TOTAL CHARGE = 0.000599861 e
Info: MASS DENSITY = 0.736394 g/cm^3
Info: ATOM DENSITY = 0.0737501 atoms/A^3
Info: ADDED 0 IMPLICIT EXCLUSIONS
Info: NONBONDED TABLE R-SQUARED SPACING: 0.0625
Info: NONBONDED TABLE SIZE: 705 POINTS
Info: REMOVING COM VELOCITY 0.0735667 -0.0348804 -0.0327967
TCL: Running for 25000 steps
ETITLE: TS BOND ANGLE DIHED IMPRP ELECT VDW BOUNDARY MISC KINETIC TOTAL TEMP POTENTIAL TOTAL3 TEMPAVG PRESSURE GPRESSURE VOLUME PRESSAVG GPRESSAVG
ENERGY: 0 0.2465 1.0803 21.1645 0.0000 -22760.3903 3859.1203 0.0000 0.0000 2956.9198 -15921.8590 298.6132 -18878.7787 -15921.2922 298.6132 -156.9924 -120.3339 67511.7610 -156.9924 -120.3339
ENERGY: 5000 0.2741 1.9609 21.6702 0.0000 -23936.6117 4052.0682 0.0000 0.0000 295.2509 -19565.3874 29.8168 -19860.6383 -19564.8112 48.2472 -538.7505 -486.3235 48092.5056 1.1576 1.1975
ENERGY: 10000 0.6929 1.6491 21.4946 0.0000 -24042.2199 4133.8925 0.0000 0.0000 294.9539 -19589.5368 29.7868 -19884.4907 -19588.7473 30.0515 -104.3191 -48.8264 47891.2715 5.3679 5.3757
ENERGY: 15000 0.4246 1.9316 21.2317 0.0000 -23937.5030 4023.4432 0.0000 0.0000 301.3585 -19589.1134 30.4336 -19890.4719 -19588.0165 29.9286 -669.2777 -605.5289 47960.6188 1.9878 1.9346
ENERGY: 20000 0.1822 1.9469 21.3347 0.0000 -24090.8304 4182.0780 0.0000 0.0000 292.6231 -19592.6654 29.5514 -19885.2885 -19591.9376 30.2155 150.1472 197.3352 47798.2747 10.1619 10.2535
ENERGY: 25000 0.2198 1.4175 21.4150 0.0000 -23883.0059 3966.6374 0.0000 0.0000 292.0587 -19601.2575 29.4944 -19893.3163 -19600.5175 29.9398 -969.7564 -907.9437 48058.9271 2.6176 2.6288
TCL: Running 25000 steps at 60 kelvin.
TCL: Setting parameter langevinTemp to 60
TCL: Running for 25000 steps
ETITLE: TS BOND ANGLE DIHED IMPRP ELECT VDW BOUNDARY MISC KINETIC TOTAL TEMP POTENTIAL TOTAL3 TEMPAVG PRESSURE GPRESSURE VOLUME PRESSAVG GPRESSAVG
ENERGY: 25000 0.2198 1.4175 21.4150 0.0000 -23883.0059 3966.6374 0.0000 0.0000 291.9124 -19601.4038 29.4796 -19893.3163 -19600.7274 29.4796 -963.4488 -907.9563 48058.9271 -963.4488 -907.9563
ENERGY: 30000 0.8587 2.4456 21.5146 0.0000 -23892.9995 4245.3936 0.0000 0.0000 584.1858 -19038.6010 58.9957 -19622.7868 -19037.0739 57.1408 1161.2425 1205.0164 47533.9943 1.3449 1.4843
ENERGY: 35000 0.4647 2.5737 21.2224 0.0000 -23651.7877 3946.2662 0.0000 0.0000 584.9914 -19096.2694 59.0771 -19681.2608 -19095.1250 60.1288 -552.9661 -476.0002 47903.8334 2.0813 1.8226
ENERGY: 40000 0.3679 2.8935 21.1774 0.0000 -23822.6550 4093.5351 0.0000 0.0000 593.3931 -19111.2880 59.9255 -19704.6811 -19109.6167 60.2213 181.1740 253.4355 47495.9718 0.4126 0.5962
ENERGY: 45000 0.9365 2.4280 21.5202 0.0000 -23844.1086 4089.8709 0.0000 0.0000 593.7832 -19135.5697 59.9649 -19729.3530 -19134.2801 60.5897 106.9287 174.3061 47577.4553 5.1462 5.6668
ENERGY: 50000 1.1015 2.0021 21.3105 0.0000 -23696.7098 3918.1720 0.0000 0.0000 587.6354 -19166.4881 59.3441 -19754.1236 -19165.1155 59.8937 -866.0297 -810.4637 47766.7567 2.0501 2.1129
TCL: Running 25000 steps at 90 kelvin.
TCL: Setting parameter langevinTemp to 90
TCL: Running for 25000 steps
ETITLE: TS BOND ANGLE DIHED IMPRP ELECT VDW BOUNDARY MISC KINETIC TOTAL TEMP POTENTIAL TOTAL3 TEMPAVG PRESSURE GPRESSURE VOLUME PRESSAVG GPRESSAVG
ENERGY: 50000 1.1015 2.0021 21.3105 0.0000 -23696.7098 3918.1720 0.0000 0.0000 587.3364 -19166.7871 59.3139 -19754.1236 -19165.4130 59.3139 -873.6096 -810.6729 47766.7567 -873.6096 -810.6729
ENERGY: 55000 0.4624 2.5409 20.9912 0.0000 -23525.5826 4058.0087 0.0000 0.0000 893.1610 -18550.4183 90.1985 -19443.5793 -18548.1372 86.4158 578.9302 643.8853 47746.2929 9.0546 8.6935
ENERGY: 60000 1.4112 3.0106 21.1163 0.0000 -23363.8041 3886.1010 0.0000 0.0000 887.2963 -18564.8686 89.6062 -19452.1649 -18562.8516 90.6539 -312.5048 -282.1969 47994.2731 -0.0048 -0.2077
ENERGY: 65000 0.5402 2.1819 21.2008 0.0000 -23346.0844 3829.0969 0.0000 0.0000 887.2109 -18605.8536 89.5976 -19493.0646 -18603.4345 90.3654 -658.0868 -634.3275 48119.2060 -0.5212 -0.1262
ENERGY: 70000 1.1105 2.8399 22.0390 0.0000 -23484.9828 3963.1026 0.0000 0.0000 916.5917 -18579.2991 92.5647 -19495.8908 -18577.4084 90.1122 19.0609 70.1986 47868.8980 7.8612 7.7105
ENERGY: 75000 0.8786 3.6608 21.2698 0.0000 -23477.8209 3968.4271 0.0000 0.0000 898.9590 -18584.6257 90.7840 -19483.5847 -18582.4247 89.9337 87.5328 144.7880 47863.9672 6.3614 6.1644
TCL: Running 25000 steps at 120 kelvin.
TCL: Setting parameter langevinTemp to 120
TCL: Running for 25000 steps
ETITLE: TS BOND ANGLE DIHED IMPRP ELECT VDW BOUNDARY MISC KINETIC TOTAL TEMP POTENTIAL TOTAL3 TEMPAVG PRESSURE GPRESSURE VOLUME PRESSAVG GPRESSAVG
ENERGY: 75000 0.8786 3.6608 21.2698 0.0000 -23477.8209 3968.4271 0.0000 0.0000 898.5128 -18585.0719 90.7390 -19483.5847 -18583.6210 90.7390 92.4850 144.5042 47863.9672 92.4850 144.5042
ENERGY: 80000 0.9559 4.2230 20.8311 0.0000 -23035.5658 3823.2699 0.0000 0.0000 1188.4172 -17997.8687 120.0158 -19186.2859 -17995.2720 117.7331 -66.9503 -7.0012 48202.4998 5.7632 5.7506
ENERGY: 85000 0.7121 2.6760 22.1406 0.0000 -23002.0521 3758.7334 0.0000 0.0000 1175.3376 -18042.4524 118.6949 -19217.7900 -18039.1354 120.3214 -510.7518 -466.1023 48439.7955 3.5443 3.6465
ENERGY: 90000 0.9353 3.2125 21.4028 0.0000 -22841.1476 3575.6527 0.0000 0.0000 1197.1578 -18042.7865 120.8985 -19239.9443 -18039.2385 120.7973 -1475.7113 -1442.9438 48551.7717 5.0853 5.1166
ENERGY: 95000 1.1809 2.6950 22.8048 0.0000 -23152.1330 3804.0086 0.0000 0.0000 1208.4099 -18113.0338 122.0348 -19321.4437 -18110.1714 120.1296 -469.1214 -457.5606 48379.2990 1.9453 1.4645
ENERGY: 100000 0.8836 4.0646 22.1536 0.0000 -23127.5892 3804.5836 0.0000 0.0000 1202.3530 -18093.5508 121.4231 -19295.9038 -18091.3241 119.6588 -354.2681 -278.9515 48196.9748 -0.7861 -0.4755
TCL: Running 25000 steps at 150 kelvin.
TCL: Setting parameter langevinTemp to 150
TCL: Running for 25000 steps
ETITLE: TS BOND ANGLE DIHED IMPRP ELECT VDW BOUNDARY MISC KINETIC TOTAL TEMP POTENTIAL TOTAL3 TEMPAVG PRESSURE GPRESSURE VOLUME PRESSAVG GPRESSAVG
ENERGY: 100000 0.8836 4.0646 22.1536 0.0000 -23127.5892 3804.5836 0.0000 0.0000 1201.7569 -18094.1469 121.3629 -19295.9038 -18091.7316 121.3629 -334.0362 -279.5818 48196.9748 -334.0362 -279.5818
ENERGY: 105000 1.4739 4.0035 21.9204 0.0000 -22558.2991 3591.3766 0.0000 0.0000 1496.4840 -17443.0406 151.1268 -18939.5246 -17437.6777 147.6299 -663.8904 -583.0209 48693.1209 6.2599 6.0377
ENERGY: 110000 2.3004 4.7737 21.5989 0.0000 -22617.2504 3677.0484 0.0000 0.0000 1517.8193 -17393.7097 153.2814 -18911.5290 -17389.7440 150.4686 -223.1793 -154.9676 48421.9684 1.9477 1.6159
ENERGY: 115000 0.5830 2.5936 22.0548 0.0000 -22778.6156 3758.1349 0.0000 0.0000 1475.0738 -17520.1754 148.9647 -18995.2492 -17517.0710 150.9038 86.9179 83.2009 48510.5992 2.9899 2.5796
ENERGY: 120000 1.2141 3.7559 22.2587 0.0000 -22657.8225 3626.5149 0.0000 0.0000 1484.9994 -17519.0795 149.9670 -19004.0788 -17516.4928 149.8467 -753.3410 -660.3816 48599.0774 -1.3987 -0.8636
ENERGY: 125000 1.1633 3.6487 21.9207 0.0000 -22628.4045 3607.3652 0.0000 0.0000 1488.5595 -17505.7470 150.3266 -18994.3065 -17501.1094 148.7807 -764.7949 -720.4419 48762.1782 3.0930 3.1441
TCL: Running 50000 steps at 180 kelvin.
TCL: Setting parameter langevinTemp to 180
TCL: Running for 50000 steps
ETITLE: TS BOND ANGLE DIHED IMPRP ELECT VDW BOUNDARY MISC KINETIC TOTAL TEMP POTENTIAL TOTAL3 TEMPAVG PRESSURE GPRESSURE VOLUME PRESSAVG GPRESSAVG
ENERGY: 125000 1.1633 3.6487 21.9207 0.0000 -22628.4045 3607.3652 0.0000 0.0000 1487.8190 -17506.4874 150.2518 -18994.3065 -17503.7267 150.2518 -775.9506 -720.0912 48762.1782 -775.9506 -720.0912
ENERGY: 135000 2.5787 6.0567 21.1853 0.0000 -22027.3393 3470.8792 0.0000 0.0000 1761.6174 -16765.0221 177.9021 -18526.6395 -16761.2894 180.0019 -445.5579 -386.3655 48839.2090 0.9344 0.8837
ENERGY: 145000 0.4107 6.0108 22.5587 0.0000 -22144.1518 3520.6950 0.0000 0.0000 1747.8728 -16846.6038 176.5141 -18594.4766 -16841.9124 180.5046 -163.5935 -121.9514 48214.8212 5.1207 4.8172
ENERGY: 155000 3.3631 3.8115 22.0236 0.0000 -22365.7717 3733.6420 0.0000 0.0000 1845.2547 -16757.6767 186.3485 -18602.9314 -16751.7271 180.5730 676.8564 741.5130 48660.7075 -3.9438 -4.0740
ENERGY: 165000 2.8447 5.3098 22.0616 0.0000 -22187.0542 3636.0680 0.0000 0.0000 1767.2084 -16753.5617 178.4667 -18520.7701 -16751.8676 179.4677 492.3694 549.1142 48482.1001 4.4902 4.2656
ENERGY: 175000 2.9334 6.4395 21.4011 0.0000 -22223.4161 3569.8453 0.0000 0.0000 1816.5754 -16806.2214 183.4522 -18622.7968 -16803.1223 179.8689 -101.4231 -29.4779 48669.1814 0.0351 0.2994
TCL: Running 50000 steps at 210 kelvin.
TCL: Setting parameter langevinTemp to 210
TCL: Running for 50000 steps
ETITLE: TS BOND ANGLE DIHED IMPRP ELECT VDW BOUNDARY MISC KINETIC TOTAL TEMP POTENTIAL TOTAL3 TEMPAVG PRESSURE GPRESSURE VOLUME PRESSAVG GPRESSAVG
ENERGY: 175000 2.9334 6.4395 21.4011 0.0000 -22223.4161 3569.8453 0.0000 0.0000 1815.6728 -16807.1239 183.3611 -18622.7968 -16803.3307 183.3611 -86.3056 -30.0132 48669.1814 -86.3056 -30.0132
ENERGY: 185000 1.9214 7.9695 21.4692 0.0000 -21191.3285 3284.0455 0.0000 0.0000 2092.4328 -15783.4900 211.3105 -17875.9228 -15777.9196 209.7055 -22.9168 64.1616 49232.7795 2.5207 2.7175
ENERGY: 195000 1.6318 8.9151 20.7467 0.0000 -20966.4058 3159.7977 0.0000 0.0000 2041.3819 -15733.9326 206.1549 -17775.3144 -15729.9345 209.8807 -291.5275 -183.2334 48592.9614 1.5643 1.0705
ENERGY: 205000 1.0585 4.9779 22.2677 0.0000 -20939.7367 3145.9170 0.0000 0.0000 2056.2318 -15709.2837 207.6546 -17765.5156 -15705.7864 211.0297 -285.7209 -222.4374 48566.3306 5.7124 5.2302
ENERGY: 215000 1.7430 3.7640 22.3465 0.0000 -20861.5716 3078.4149 0.0000 0.0000 2088.9788 -15666.3243 210.9617 -17755.3031 -15659.4535 211.3528 -348.5393 -289.2210 48315.8892 1.7472 1.4378
ENERGY: 225000 1.2285 3.7266 21.5240 0.0000 -21089.3918 3234.0663 0.0000 0.0000 2100.9187 -15727.9278 212.1674 -17828.8465 -15723.4392 210.8556 122.1692 142.7884 48533.2920 0.0903 -0.4946
TCL: Running 50000 steps at 240 kelvin.
TCL: Setting parameter langevinTemp to 240
TCL: Running for 50000 steps
ETITLE: TS BOND ANGLE DIHED IMPRP ELECT VDW BOUNDARY MISC KINETIC TOTAL TEMP POTENTIAL TOTAL3 TEMPAVG PRESSURE GPRESSURE VOLUME PRESSAVG GPRESSAVG
ENERGY: 225000 1.2285 3.7266 21.5240 0.0000 -21089.3918 3234.0663 0.0000 0.0000 2099.8577 -15728.9888 212.0603 -17828.8465 -15725.0333 212.0603 70.0647 142.2092 48533.2920 70.0647 142.2092
ENERGY: 235000 1.7162 8.4850 21.6160 0.0000 -20078.8431 2997.3464 0.0000 0.0000 2353.3189 -14696.3606 237.6568 -17049.6795 -14691.3608 240.6619 549.3920 580.0426 48759.1815 3.2437 3.6068
ENERGY: 245000 1.8687 5.5362 23.5494 0.0000 -19907.2596 2856.4461 0.0000 0.0000 2408.3869 -14611.4722 243.2180 -17019.8591 -14607.8432 241.6222 -136.8511 -63.4231 49155.5779 5.0161 4.8457
ENERGY: 255000 1.3082 7.1181 22.0665 0.0000 -19923.2156 2813.1397 0.0000 0.0000 2368.2139 -14711.3691 239.1610 -17079.5830 -14705.9699 239.7853 -729.3830 -668.2418 49787.6923 0.5466 0.2008
ENERGY: 265000 0.5921 4.3214 22.6652 0.0000 -19965.4429 2909.8197 0.0000 0.0000 2318.2885 -14709.7559 234.1192 -17028.0444 -14704.2310 240.1314 44.3776 109.8105 49002.0553 -1.5128 -1.1200
ENERGY: 275000 2.8805 7.5531 21.7394 0.0000 -19997.1326 2832.1086 0.0000 0.0000 2412.4539 -14720.3970 243.6287 -17132.8509 -14714.0578 238.4106 -454.0868 -379.2207 49112.4567 0.1915 0.9430
TCL: Running 50000 steps at 270 kelvin.
TCL: Setting parameter langevinTemp to 270
TCL: Running for 50000 steps
ETITLE: TS BOND ANGLE DIHED IMPRP ELECT VDW BOUNDARY MISC KINETIC TOTAL TEMP POTENTIAL TOTAL3 TEMPAVG PRESSURE GPRESSURE VOLUME PRESSAVG GPRESSAVG
ENERGY: 275000 2.8805 7.5531 21.7394 0.0000 -19997.1326 2832.1086 0.0000 0.0000 2411.2521 -14721.5988 243.5074 -17132.8509 -14717.3609 243.5074 -456.7334 -378.5865 49112.4567 -456.7334 -378.5865
ENERGY: 285000 1.0315 5.4933 21.7769 0.0000 -19056.5376 2620.9715 0.0000 0.0000 2657.2431 -13750.0213 268.3495 -16407.2644 -13745.3965 269.1348 -238.1529 -112.1619 49853.8387 0.9915 1.1238
ENERGY: 295000 0.6142 7.2580 21.6294 0.0000 -19096.0920 2709.2299 0.0000 0.0000 2636.7988 -13720.5618 266.2849 -16357.3606 -13715.9013 269.8194 275.2313 360.8974 49987.1462 4.2987 4.1451
ENERGY: 305000 2.0513 7.5549 22.0569 0.0000 -19028.8189 2639.7226 0.0000 0.0000 2645.6129 -13711.8204 267.1750 -16357.4333 -13705.6237 270.4011 5.1616 63.8711 49926.0528 -0.9472 -0.7367
ENERGY: 315000 3.2971 5.0010 22.6545 0.0000 -18877.8304 2532.7533 0.0000 0.0000 2677.8389 -13636.2855 270.4294 -16314.1244 -13628.5382 270.9582 -361.6029 -252.6985 49786.6510 1.9187 1.7525
ENERGY: 325000 2.7791 7.3751 21.9255 0.0000 -19119.8378 2638.8566 0.0000 0.0000 2653.0968 -13795.8048 267.9308 -16448.9015 -13789.5537 270.2461 -188.0674 -119.4054 49865.2079 3.8626 2.9931
TCL: Running 1000000 steps at 300 kelvin.
TCL: Setting parameter langevinTemp to 300
TCL: Running for 1000000 steps
ETITLE: TS BOND ANGLE DIHED IMPRP ELECT VDW BOUNDARY MISC KINETIC TOTAL TEMP POTENTIAL TOTAL3 TEMPAVG PRESSURE GPRESSURE VOLUME PRESSAVG GPRESSAVG
ENERGY: 325000 2.7791 7.3751 21.9255 0.0000 -19119.8378 2638.8566 0.0000 0.0000 2651.7986 -13797.1029 267.7997 -16448.9015 -13792.7813 267.7997 -198.3317 -119.8640 49865.2079 -198.3317 -119.8640
ENERGY: 525000 1.8296 9.6218 23.6002 0.0000 -17970.9162 2293.4235 0.0000 0.0000 2947.9356 -12694.5055 297.7059 -15642.4411 -12688.3725 299.4836 -695.3291 -608.6164 51695.2049 4.7254 4.6219
ENERGY: 725000 3.5748 7.0036 22.7912 0.0000 -18312.3672 2552.1009 0.0000 0.0000 3019.6035 -12707.2932 304.9435 -15726.8967 -12701.0874 301.9134 594.7539 682.4693 51096.9043 -3.2752 -2.9868
ENERGY: 925000 2.3862 3.8812 22.0794 0.0000 -18080.5711 2403.8821 0.0000 0.0000 3001.9256 -12646.4166 303.1583 -15648.3422 -12639.8503 301.4117 -387.1442 -302.7179 52102.1033 4.7668 5.2842
ENERGY: 1125000 2.4227 7.4110 22.3820 0.0000 -18124.0370 2418.2742 0.0000 0.0000 2983.8429 -12689.7042 301.3321 -15673.5471 -12684.3212 298.9686 -52.6861 20.2148 51311.4844 2.0219 2.1697
ENERGY: 1325000 1.0750 6.3520 22.6290 0.0000 -18130.6151 2480.2883 0.0000 0.0000 3042.6491 -12577.6217 307.2709 -15620.2708 -12574.1060 301.2898 423.4322 491.1365 50960.7343 -0.3055 -0.8059
TCL: Exiting due to exit command.
