Info: SIMULATION PARAMETERS:
Info: TIMESTEP               2
Info: NUMBER OF STEPS        0
Info: STEPS PER CYCLE        10
Info: PERIODIC CELL BASIS 1  33.943 0 0
Info: PERIODIC CELL BASIS 2  0 34.26 0
Info: PERIODIC CELL BASIS 3  0 0 37.195
Info: PERIODIC CELL CENTER   0 0 0
Info: WRAPPING WATERS AROUND PERIODIC BOUNDARIES ON OUTPUT.
Info: WRAPPING ALL CLUSTERS AROUND PERIODIC BOUNDARIES ON OUTPUT.
Info: FIRST LDB TIMESTEP     50
Info: LAST LDB TIMESTEP     -1
Info: HOM BACKGROUND SCALING 1
Info: PME BACKGROUND SCALING 1
Info: MIN ATOMS PER PATCH    40
Info: EMPTY PATCH LOAD       40 ATOMS
Info: INITIAL TEMPERATURE    300
Info: CENTER OF MASS MOVING INITIALLY? NO
Info: DIELECTRIC             1
Info: EXCLUDE                SCALED ONE-FOUR
Info: 1-4 ELECTROSTATICS SCALED BY 0.833333
Info: MODIFIED 1-4 VDW PARAMETERS WILL BE USED
Info: DCD FILENAME           mobley_1963873_equil.dcd
Info: DCD FREQUENCY          100000
Info: DCD FIRST STEP         100000
Info: DCD FILE WILL CONTAIN UNIT CELL DATA
Info: XST FILENAME           mobley_1963873_equil.xst
Info: XST FREQUENCY          100000
Info: NO VELOCITY DCD OUTPUT
Info: NO FORCE DCD OUTPUT
Info: OUTPUT FILENAME        mobley_1963873_equil
Info: BINARY OUTPUT FILES WILL BE USED
Info: RESTART FILENAME       mobley_1963873_equil.restart
Info: RESTART FREQUENCY      100000
Info: BINARY RESTART FILES WILL BE USED
Info: CUTOFF                 9
Info: PAIRLIST DISTANCE      11
Info: PAIRLIST SHRINK RATE   0.01
Info: PAIRLIST GROW RATE     0.01
Info: PAIRLIST TRIGGER       0.3
Info: PAIRLISTS PER CYCLE    2
Info: PAIRLISTS ENABLED
Info: MARGIN                 8
Info: HYDROGEN GROUP CUTOFF  2.5
Info: PATCH DIMENSION        21.5
Info: ENERGY OUTPUT STEPS    100000
Info: ENERGY EVALUATION STEPS    100000
Info: OUTPUT ENERGY PRECISION 4
Info: CROSSTERM ENERGY INCLUDED IN DIHEDRAL
Info: TIMING OUTPUT STEPS    1000000
Info: PRESSURE OUTPUT STEPS  100000
Info: LANGEVIN DYNAMICS ACTIVE
Info: LANGEVIN TEMPERATURE   30
Info: LANGEVIN USING BBK INTEGRATOR
Info: LANGEVIN DAMPING COEFFICIENT IS 1 INVERSE PS
Info: LANGEVIN DYNAMICS APPLIED TO HYDROGENS
Info: LANGEVIN PISTON PRESSURE CONTROL ACTIVE
Info:        TARGET PRESSURE IS 1.01325 BAR
Info:     OSCILLATION PERIOD IS 50 FS
Info:             DECAY TIME IS 25 FS
Info:     PISTON TEMPERATURE IS 300 K
Info:       PRESSURE CONTROL IS GROUP-BASED
Info:    INITIAL STRAIN RATE IS 0 0 0
Info:       CELL FLUCTUATION IS ISOTROPIC
Info: PARTICLE MESH EWALD (PME) ACTIVE
Info: PME TOLERANCE               1e-06
Info: PME EWALD COEFFICIENT       0.348832
Info: PME INTERPOLATION ORDER     4
Info: PME GRID DIMENSIONS         36 36 40
Info: PME MAXIMUM GRID SPACING    1
Info: FULL ELECTROSTATIC EVALUATION FREQUENCY      2
Info: USING VERLET I (r-RESPA) MTS SCHEME.
Info: C1 SPLITTING OF LONG RANGE ELECTROSTATICS
Info: PLACING ATOMS IN PATCHES BY HYDROGEN GROUPS
Info: RIGID BONDS TO HYDROGEN : ALL
Info:         ERROR TOLERANCE : 1e-08
Info:          MAX ITERATIONS : 100
Info: RIGID WATER USING SETTLE ALGORITHM
Info: RANDOM NUMBER SEED     1742481191
Info: USE HYDROGEN BONDS?    NO
Info: Using AMBER format force field!
Info: AMBER PARM FILE        mobley_1963873.prmtop
Info: COORDINATE PDB         mobley_1963873.pdb
Info: Exclusions will be read from PARM file!
Info: SCNB (VDW SCALING)     2
Info: USING ARITHMETIC MEAN TO COMBINE L-J SIGMA PARAMETERS
Info: BINARY COORDINATES     mobley_1963873_min.coor
Info: SUMMARY OF PARAMETERS:
Info: 9 BONDS
Info: 10 ANGLES
Info:   10 HARMONIC
Info:   0 COSINE-BASED
Info: 11 DIHEDRAL
Info: 0 IMPROPER
Info: 0 CROSSTERM
Info: 0 VDW
Info: 45 VDW_PAIRS
Info: 0 NBTHOLE_PAIRS
Info: STRUCTURE SUMMARY:
Info: 2946 ATOMS
Info: 2945 BONDS
Info: 18 ANGLES
Info: 24 DIHEDRALS
Info: 0 IMPROPERS
Info: 0 CROSSTERMS
Info: 2979 EXCLUSIONS
Info: 2941 RIGID BONDS
Info: 5897 DEGREES OF FREEDOM
Info: 983 HYDROGEN GROUPS
Info: 4 ATOMS IN LARGEST HYDROGEN GROUP
Info: 983 MIGRATION GROUPS
Info: 4 ATOMS IN LARGEST MIGRATION GROUP
Info: TOTAL MASS = 17692.7 amu
Info: TOTAL CHARGE = -0.000199951 e
Info: MASS DENSITY = 0.679254 g/cm^3
Info: ATOM DENSITY = 0.06811 atoms/A^3
Info: ADDED 0 IMPLICIT EXCLUSIONS
Info: NONBONDED TABLE R-SQUARED SPACING: 0.0625
Info: NONBONDED TABLE SIZE: 705 POINTS
Info: REMOVING COM VELOCITY 0.141376 0.117296 0.184947
TCL: Running for 100000 steps
ETITLE: TS BOND ANGLE DIHED IMPRP ELECT VDW BOUNDARY MISC KINETIC TOTAL TEMP POTENTIAL TOTAL3 TEMPAVG PRESSURE GPRESSURE VOLUME PRESSAVG GPRESSAVG
ENERGY: 0 0.0647 1.0474 22.0727 0.0000 -13647.4334 2367.1597 0.0000 0.0000 1720.5112 -9536.5778 293.6410 -11257.0890 -9536.2311 293.6410 328.0938 366.5234 43253.5887 328.0938 366.5234
ENERGY: 100000 0.1020 1.8514 21.4852 0.0000 -14178.2586 2410.6777 0.0000 0.0000 176.8600 -11567.2823 30.1848 -11744.1424 -11566.8779 30.8354 -445.1049 -417.2505 28671.9065 2.7091 2.6241
TCL: Running 100000 steps at 60 kelvin.
TCL: Setting parameter langevinTemp to 60
TCL: Running for 100000 steps
ETITLE: TS BOND ANGLE DIHED IMPRP ELECT VDW BOUNDARY MISC KINETIC TOTAL TEMP POTENTIAL TOTAL3 TEMPAVG PRESSURE GPRESSURE VOLUME PRESSAVG GPRESSAVG
ENERGY: 100000 0.1020 1.8514 21.4852 0.0000 -14178.2586 2410.6777 0.0000 0.0000 176.7735 -11567.3688 30.1701 -11744.1424 -11566.9471 30.1701 -477.2285 -417.5771 28671.9065 -477.2285 -417.5771
ENERGY: 200000 0.2176 1.6228 22.4019 0.0000 -14006.6361 2299.4619 0.0000 0.0000 348.7740 -11334.1580 59.5255 -11682.9319 -11333.1488 59.8505 -1165.7177 -1112.7157 28823.2800 4.6823 4.6473
TCL: Running 100000 steps at 90 kelvin.
TCL: Setting parameter langevinTemp to 90
TCL: Running for 100000 steps
ETITLE: TS BOND ANGLE DIHED IMPRP ELECT VDW BOUNDARY MISC KINETIC TOTAL TEMP POTENTIAL TOTAL3 TEMPAVG PRESSURE GPRESSURE VOLUME PRESSAVG GPRESSAVG
ENERGY: 200000 0.2176 1.6228 22.4019 0.0000 -14006.6361 2299.4619 0.0000 0.0000 348.6010 -11334.3309 59.4960 -11682.9319 -11333.5311 59.4960 -1165.5313 -1112.6958 28823.2800 -1165.5313 -1112.6958
ENERGY: 300000 0.0521 3.1176 21.0316 0.0000 -14070.3789 2451.1465 0.0000 0.0000 535.5384 -11059.4927 91.4008 -11595.0311 -11057.7225 89.7559 565.1178 592.3065 28342.4291 4.9470 4.8444
TCL: Running 100000 steps at 120 kelvin.
TCL: Setting parameter langevinTemp to 120
TCL: Running for 100000 steps
ETITLE: TS BOND ANGLE DIHED IMPRP ELECT VDW BOUNDARY MISC KINETIC TOTAL TEMP POTENTIAL TOTAL3 TEMPAVG PRESSURE GPRESSURE VOLUME PRESSAVG GPRESSAVG
ENERGY: 300000 0.0521 3.1176 21.0316 0.0000 -14070.3789 2451.1465 0.0000 0.0000 535.2627 -11059.7684 91.3537 -11595.0311 -11058.8359 91.3537 545.9386 592.9749 28342.4291 545.9386 592.9749
ENERGY: 400000 0.7920 2.0878 23.1014 0.0000 -13981.2572 2488.1675 0.0000 0.0000 703.0305 -10764.0779 119.9868 -11467.1085 -10762.7043 120.1502 1415.4793 1454.2097 28397.3336 3.1268 3.1711
TCL: Running 100000 steps at 150 kelvin.
TCL: Setting parameter langevinTemp to 150
TCL: Running for 100000 steps
ETITLE: TS BOND ANGLE DIHED IMPRP ELECT VDW BOUNDARY MISC KINETIC TOTAL TEMP POTENTIAL TOTAL3 TEMPAVG PRESSURE GPRESSURE VOLUME PRESSAVG GPRESSAVG
ENERGY: 400000 0.7920 2.0878 23.1014 0.0000 -13981.2572 2488.1675 0.0000 0.0000 702.6965 -10764.4120 119.9298 -11467.1085 -10763.2328 119.9298 1407.0674 1453.8569 28397.3336 1407.0674 1453.8569
ENERGY: 500000 0.3252 2.5813 21.3737 0.0000 -13612.8629 2262.6635 0.0000 0.0000 870.4523 -10455.4668 148.5608 -11325.9191 -10453.7629 149.8882 -219.0054 -173.5224 29053.1759 4.6164 4.5478
TCL: Running 100000 steps at 180 kelvin.
TCL: Setting parameter langevinTemp to 180
TCL: Running for 100000 steps
ETITLE: TS BOND ANGLE DIHED IMPRP ELECT VDW BOUNDARY MISC KINETIC TOTAL TEMP POTENTIAL TOTAL3 TEMPAVG PRESSURE GPRESSURE VOLUME PRESSAVG GPRESSAVG
ENERGY: 500000 0.3252 2.5813 21.3737 0.0000 -13612.8629 2262.6635 0.0000 0.0000 870.0174 -10455.9017 148.4866 -11325.9191 -10453.8833 148.4866 -224.1748 -174.5346 29053.1759 -224.1748 -174.5346
ENERGY: 600000 0.3228 4.8924 22.1963 0.0000 -13019.8960 2006.6246 0.0000 0.0000 1055.2319 -9930.6280 180.0973 -10985.8599 -9928.5769 179.9671 -768.7790 -760.0915 28639.2937 3.4029 3.4235
TCL: Running 100000 steps at 210 kelvin.
TCL: Setting parameter langevinTemp to 210
TCL: Running for 100000 steps
ETITLE: TS BOND ANGLE DIHED IMPRP ELECT VDW BOUNDARY MISC KINETIC TOTAL TEMP POTENTIAL TOTAL3 TEMPAVG PRESSURE GPRESSURE VOLUME PRESSAVG GPRESSAVG
ENERGY: 600000 0.3228 4.8924 22.1963 0.0000 -13019.8960 2006.6246 0.0000 0.0000 1054.7025 -9931.1574 180.0069 -10985.8599 -9928.6545 180.0069 -843.4255 -761.6323 28639.2937 -843.4255 -761.6323
ENERGY: 700000 0.9329 4.1912 23.0450 0.0000 -12475.0493 1922.3416 0.0000 0.0000 1208.3687 -9316.1700 206.2333 -10524.5387 -9314.8544 209.8368 294.0325 382.2371 28503.1933 4.2330 4.2643
TCL: Running 100000 steps at 240 kelvin.
TCL: Setting parameter langevinTemp to 240
TCL: Running for 100000 steps
ETITLE: TS BOND ANGLE DIHED IMPRP ELECT VDW BOUNDARY MISC KINETIC TOTAL TEMP POTENTIAL TOTAL3 TEMPAVG PRESSURE GPRESSURE VOLUME PRESSAVG GPRESSAVG
ENERGY: 700000 0.9329 4.1912 23.0450 0.0000 -12475.0493 1922.3416 0.0000 0.0000 1207.7341 -9316.8046 206.1250 -10524.5387 -9315.0225 206.1250 300.4517 381.2945 28503.1933 300.4517 381.2945
ENERGY: 800000 0.5725 4.4820 25.1859 0.0000 -11742.2319 1628.5213 0.0000 0.0000 1436.0660 -8647.4043 245.0946 -10083.4703 -8643.1614 239.5941 -715.8090 -600.2518 29100.2793 3.5269 3.5214
TCL: Running 100000 steps at 270 kelvin.
TCL: Setting parameter langevinTemp to 270
TCL: Running for 100000 steps
ETITLE: TS BOND ANGLE DIHED IMPRP ELECT VDW BOUNDARY MISC KINETIC TOTAL TEMP POTENTIAL TOTAL3 TEMPAVG PRESSURE GPRESSURE VOLUME PRESSAVG GPRESSAVG
ENERGY: 800000 0.5725 4.4820 25.1859 0.0000 -11742.2319 1628.5213 0.0000 0.0000 1435.3580 -8648.1123 244.9737 -10083.4703 -8645.5721 244.9737 -684.8838 -599.6221 29100.2793 -684.8838 -599.6221
ENERGY: 900000 0.5718 3.5500 21.9710 0.0000 -11342.0052 1652.9143 0.0000 0.0000 1589.7027 -8073.2954 271.3158 -9662.9980 -8070.2887 269.9044 587.7968 746.2237 29561.6089 3.4611 3.3837
TCL: Running 1000000 steps at 300 kelvin.
TCL: Setting parameter langevinTemp to 300
TCL: Running for 1000000 steps
ETITLE: TS BOND ANGLE DIHED IMPRP ELECT VDW BOUNDARY MISC KINETIC TOTAL TEMP POTENTIAL TOTAL3 TEMPAVG PRESSURE GPRESSURE VOLUME PRESSAVG GPRESSAVG
ENERGY: 900000 0.5718 3.5500 21.9710 0.0000 -11342.0052 1652.9143 0.0000 0.0000 1588.9145 -8074.0835 271.1813 -9662.9980 -8071.9732 271.1813 650.1605 747.5180 29561.6089 650.1605 747.5180
ENERGY: 1100000 1.2279 7.1788 20.2681 0.0000 -10699.0000 1427.9865 0.0000 0.0000 1723.8194 -7518.5193 294.2056 -9242.3386 -7517.5251 300.3127 -141.1470 -8.4193 30428.4774 2.9352 2.7902
ENERGY: 1300000 2.3447 4.3970 26.1597 0.0000 -10725.9218 1461.2239 0.0000 0.0000 1744.6993 -7487.0972 297.7693 -9231.7966 -7482.9572 300.3931 93.5027 183.1854 30419.8906 3.7648 3.6287
ENERGY: 1500000 1.5944 3.5566 24.2553 0.0000 -10730.6574 1471.4517 0.0000 0.0000 1822.9150 -7406.8843 311.1184 -9229.7993 -7401.7630 300.6122 774.0841 850.0067 29687.6190 3.5729 3.4269
ENERGY: 1700000 2.9360 10.0959 21.1156 0.0000 -10702.3723 1454.6525 0.0000 0.0000 1774.9868 -7438.5855 302.9384 -9213.5722 -7436.7184 300.6967 634.7208 732.1835 29746.9019 3.2660 3.3639
ENERGY: 1900000 0.5739 6.8616 22.7221 0.0000 -10602.7294 1350.8304 0.0000 0.0000 1790.9668 -7430.7746 305.6658 -9221.7414 -7427.5910 300.2758 -597.1230 -515.1857 30526.3434 2.4504 2.5166
TCL: Exiting due to exit command.
