Info: SIMULATION PARAMETERS:
Info: TIMESTEP               2
Info: NUMBER OF STEPS        0
Info: STEPS PER CYCLE        10
Info: PERIODIC CELL BASIS 1  32.2489 0 0
Info: PERIODIC CELL BASIS 2  0 30.1937 0
Info: PERIODIC CELL BASIS 3  0 0 31.4831
Info: PERIODIC CELL CENTER   0 0 0
Info: WRAPPING WATERS AROUND PERIODIC BOUNDARIES ON OUTPUT.
Info: WRAPPING ALL CLUSTERS AROUND PERIODIC BOUNDARIES ON OUTPUT.
Info: FIRST LDB TIMESTEP     50
Info: LAST LDB TIMESTEP     -1
Info: HOM BACKGROUND SCALING 1
Info: PME BACKGROUND SCALING 1
Info: MIN ATOMS PER PATCH    40
Info: EMPTY PATCH LOAD       40 ATOMS
Info: VELOCITY FILE          mobley_1079207_equil.vel
Info: CENTER OF MASS MOVING INITIALLY? NO
Info: DIELECTRIC             1
Info: EXCLUDE                SCALED ONE-FOUR
Info: 1-4 ELECTROSTATICS SCALED BY 0.833333
Info: MODIFIED 1-4 VDW PARAMETERS WILL BE USED
Info: DCD FILENAME           mobley_1079207_prod.dcd
Info: DCD FREQUENCY          100000
Info: DCD FIRST STEP         100000
Info: DCD FILE WILL CONTAIN UNIT CELL DATA
Info: XST FILENAME           mobley_1079207_prod.xst
Info: XST FREQUENCY          100000
Info: NO VELOCITY DCD OUTPUT
Info: NO FORCE DCD OUTPUT
Info: OUTPUT FILENAME        mobley_1079207_prod
Info: BINARY OUTPUT FILES WILL BE USED
Info: RESTART FILENAME       mobley_1079207_prod.restart
Info: RESTART FREQUENCY      100000
Info: BINARY RESTART FILES WILL BE USED
Info: CUTOFF                 9
Info: PAIRLIST DISTANCE      11
Info: PAIRLIST SHRINK RATE   0.01
Info: PAIRLIST GROW RATE     0.01
Info: PAIRLIST TRIGGER       0.3
Info: PAIRLISTS PER CYCLE    2
Info: PAIRLISTS ENABLED
Info: MARGIN                 2
Info: HYDROGEN GROUP CUTOFF  2.5
Info: PATCH DIMENSION        15.5
Info: ENERGY OUTPUT STEPS    100000
Info: ENERGY EVALUATION STEPS    100000
Info: OUTPUT ENERGY PRECISION 4
Info: CROSSTERM ENERGY INCLUDED IN DIHEDRAL
Info: TIMING OUTPUT STEPS    1000000
Info: PRESSURE OUTPUT STEPS  100000
Info: ALCHEMICAL FEP ON
Info: FEP CURRENT LAMBDA VALUE     0
Info: FEP COMPARISON LAMBDA VALUE  0.05
Info: FEP INTRA-ALCHEMICAL NON-BONDED INTERACTIONS WILL BE RETAINED
Info: FEP INTRA-ALCHEMICAL BONDED INTERACTIONS WILL BE RETAINED
Info: FEP VDW SHIFTING COEFFICIENT 5
Info: FEP ELEC. ACTIVE FOR ANNIHILATED PARTICLES BETWEEN LAMBDA = 0 AND LAMBDA = 0.5
Info: FEP ELEC. ACTIVE FOR EXNIHILATED PARTICLES BETWEEN LAMBDA = 0.5 AND LAMBDA = 1
Info: FEP VDW ACTIVE FOR ANNIHILATED PARTICLES BETWEEN LAMBDA = 0 AND LAMBDA = 1
Info: FEP VDW ACTIVE FOR EXNIHILATED PARTICLES BETWEEN LAMBDA = 0 AND LAMBDA = 1
Info: FEP BOND ACTIVE FOR ANNIHILATED PARTICLES BETWEEN LAMBDA = 1 AND LAMBDA = 1
Info: FEP BOND ACTIVE FOR EXNIHILATED PARTICLES BETWEEN LAMBDA = 0 AND LAMBDA = 0
Info: LANGEVIN DYNAMICS ACTIVE
Info: LANGEVIN TEMPERATURE   300
Info: LANGEVIN USING BBK INTEGRATOR
Info: LANGEVIN DAMPING COEFFICIENT IS 1 INVERSE PS
Info: LANGEVIN DYNAMICS APPLIED TO HYDROGENS
Info: LANGEVIN PISTON PRESSURE CONTROL ACTIVE
Info:        TARGET PRESSURE IS 1.01325 BAR
Info:     OSCILLATION PERIOD IS 50 FS
Info:             DECAY TIME IS 25 FS
Info:     PISTON TEMPERATURE IS 300 K
Info:       PRESSURE CONTROL IS GROUP-BASED
Info:    INITIAL STRAIN RATE IS 6.15553e-07 6.15553e-07 6.15553e-07
Info:       CELL FLUCTUATION IS ISOTROPIC
Info: PARTICLE MESH EWALD (PME) ACTIVE
Info: PME TOLERANCE               1e-06
Info: PME EWALD COEFFICIENT       0.348832
Info: PME INTERPOLATION ORDER     4
Info: PME GRID DIMENSIONS         36 32 32
Info: PME MAXIMUM GRID SPACING    1
Info: PME CALCULATION WILL BE PERFORMED ON GPU
Info: FULL ELECTROSTATIC EVALUATION FREQUENCY      2
Info: USING VERLET I (r-RESPA) MTS SCHEME.
Info: C1 SPLITTING OF LONG RANGE ELECTROSTATICS
Info: PLACING ATOMS IN PATCHES BY HYDROGEN GROUPS
Info: RIGID BONDS TO HYDROGEN : ALL
Info:         ERROR TOLERANCE : 1e-08
Info:          MAX ITERATIONS : 100
Info: RIGID WATER USING SETTLE ALGORITHM
Info: RANDOM NUMBER SEED     1742119064
Info: USE HYDROGEN BONDS?    NO
Info: Using AMBER format force field!
Info: AMBER PARM FILE        mobley_1079207.prmtop
Info: COORDINATE PDB         mobley_1079207.pdb
Info: Exclusions will be read from PARM file!
Info: SCNB (VDW SCALING)     2
Info: USING ARITHMETIC MEAN TO COMBINE L-J SIGMA PARAMETERS
Info: BINARY COORDINATES     mobley_1079207_equil.coor
Info: SUMMARY OF PARAMETERS:
Info: 5 BONDS
Info: 3 ANGLES
Info:   3 HARMONIC
Info:   0 COSINE-BASED
Info: 2 DIHEDRAL
Info: 0 IMPROPER
Info: 0 CROSSTERM
Info: 0 VDW
Info: 15 VDW_PAIRS
Info: 0 NBTHOLE_PAIRS
Info: To read alchdata from file: mobley_1079207.pdb
Info: To read alchflag data from column: 5
Info: STRUCTURE SUMMARY:
Info: 2976 ATOMS
Info: 2976 BONDS
Info: 18 ANGLES
Info: 30 DIHEDRALS
Info: 0 IMPROPERS
Info: 0 CROSSTERMS
Info: 3015 EXCLUSIONS
Info: 2968 RIGID BONDS
Info: ALCH: 0 ATOMS TO DISAPPEAR IN FINAL STATE
Info: ALCH: 12 ATOMS TO APPEAR IN FINAL STATE
Info: 5960 DEGREES OF FREEDOM
Info: 996 HYDROGEN GROUPS
Info: 3 ATOMS IN LARGEST HYDROGEN GROUP
Info: 996 MIGRATION GROUPS
Info: 3 ATOMS IN LARGEST MIGRATION GROUP
Info: TOTAL MASS = 17946.8 amu
Info: TOTAL CHARGE = 0.000199996 e
Info: MASS DENSITY = 0.972159 g/cm^3
Info: ATOM DENSITY = 0.0970787 atoms/A^3
Info: ADDED 0 IMPLICIT EXCLUSIONS
Info: NONBONDED TABLE R-SQUARED SPACING: 0.0625
Info: NONBONDED TABLE SIZE: 705 POINTS
Info: REMOVING COM VELOCITY -0.062898 0.00641987 -0.0401382
Info: Use 3D box decompostion in PME FFT.
Info: Updated CUDA force table with 4096 elements.
Info: Updated CUDA LJ table with 5 x 5 elements.
Info: Found 15 unique exclusion lists needing 28 bytes
TCL: Running for 1500000 steps
ETITLE: TS BOND ANGLE DIHED IMPRP ELECT VDW BOUNDARY MISC KINETIC TOTAL TEMP POTENTIAL TOTALAVG TEMPAVG PRESSURE GPRESSURE VOLUME PRESSAVG GPRESSAVG
ENERGY: 0 1.0495 2.1523 3.7867 0.0000 -10873.5727 1464.0345 0.0000 0.0000 1697.5140 -7705.0357 286.6537 -9402.5497 -7705.0357 286.6537 -212.6068 -130.6410 30655.5318 -212.6068 -130.6410
ENERGY: 300000 2.6139 2.3550 3.6426 0.0000 -10700.8148 1429.4125 0.0000 0.0000 1769.3484 -7493.4425 298.7841 -9262.7909 -7581.8327 297.7944 -159.7763 -125.0308 30570.1099 -416.1688 -331.0523
ENERGY: 600000 2.6862 3.4897 2.2865 0.0000 -10888.3714 1537.1636 0.0000 0.0000 1743.0487 -7599.6967 294.3430 -9342.7454 -7592.7835 297.0834 522.0724 602.7117 30472.3674 -105.9680 -46.8039
ENERGY: 900000 0.9630 3.1409 1.6833 0.0000 -10709.2023 1419.2206 0.0000 0.0000 1781.5505 -7502.6439 300.8446 -9284.1945 -7573.8056 298.1896 -284.9094 -149.6767 30631.2886 -169.0186 -111.6088
ENERGY: 1200000 3.4640 3.0613 4.1333 0.0000 -10782.1147 1424.3730 0.0000 0.0000 1767.8014 -7579.2816 298.5229 -9347.0830 -7567.2883 299.1118 -333.8969 -326.8496 30754.9128 -195.0070 -143.8140
ENERGY: 1500000 1.4070 3.0796 2.2644 0.0000 -10760.5127 1469.3156 0.0000 0.0000 1753.8033 -7530.6428 296.1590 -9284.4460 -7562.0767 299.3102 88.8091 127.9387 31004.6328 -158.5262 -102.3181
TCL: Running FEP window   2: Lambda1 0.05   Lambda2 0.1    [dLambda 0.05  ]
TCL: Setting parameter firsttimestep to 0
TCL: Setting parameter alchLambda to 0.05
Info: NONBONDED TABLE R-SQUARED SPACING: 0.0625
Info: NONBONDED TABLE SIZE: 705 POINTS
TCL: Setting parameter alchLambda2 to 0.1
Info: NONBONDED TABLE R-SQUARED SPACING: 0.0625
Info: NONBONDED TABLE SIZE: 705 POINTS
TCL: Running for 1500000 steps
ETITLE: TS BOND ANGLE DIHED IMPRP ELECT VDW BOUNDARY MISC KINETIC TOTAL TEMP POTENTIAL TOTALAVG TEMPAVG PRESSURE GPRESSURE VOLUME PRESSAVG GPRESSAVG
ENERGY: 0 1.4070 3.0796 2.2644 0.0000 -10760.5128 1473.5014 0.0000 0.0000 1752.9132 -7527.3471 296.0087 -9280.2603 -7527.3471 296.0087 50.6976 138.1938 31004.6328 50.6976 138.1938
ENERGY: 300000 2.8726 2.9360 3.9535 0.0000 -10766.4240 1368.6646 0.0000 0.0000 1740.7873 -7647.2100 293.9611 -9387.9973 -7564.7756 299.8762 -965.4236 -924.5773 30713.5804 -124.3013 -63.1972
ENERGY: 600000 2.6077 1.7644 0.5208 0.0000 -10842.7266 1527.3938 0.0000 0.0000 1756.1359 -7554.3039 296.5529 -9310.4398 -7553.3499 300.9730 381.1191 474.3517 30812.5561 -47.6785 12.3876
ENERGY: 900000 3.3615 1.2047 3.9509 0.0000 -10672.6419 1415.4392 0.0000 0.0000 1834.9411 -7413.7445 309.8605 -9248.6856 -7547.3317 301.4047 -150.1073 -101.4376 30856.4327 49.8313 102.7336
ENERGY: 1200000 2.0364 1.6847 2.1977 0.0000 -10764.3566 1420.6981 0.0000 0.0000 1773.8136 -7563.9261 299.5381 -9337.7397 -7552.8840 301.2476 -182.1764 -107.1937 30364.0736 -5.6376 56.1646
ENERGY: 1500000 0.6143 1.5450 1.4812 0.0000 -10817.6410 1499.0561 0.0000 0.0000 1752.4683 -7562.4762 295.9336 -9314.9444 -7562.4392 300.2922 474.5094 554.1381 30358.3216 -11.2893 55.2178
TCL: Running FEP window   3: Lambda1 0.1    Lambda2 0.15000000000000002 [dLambda 0.05000000000000002]
TCL: Setting parameter firsttimestep to 0
TCL: Setting parameter alchLambda to 0.1
Info: NONBONDED TABLE R-SQUARED SPACING: 0.0625
Info: NONBONDED TABLE SIZE: 705 POINTS
TCL: Setting parameter alchLambda2 to 0.15000000000000002
Info: NONBONDED TABLE R-SQUARED SPACING: 0.0625
Info: NONBONDED TABLE SIZE: 705 POINTS
TCL: Running for 1500000 steps
ETITLE: TS BOND ANGLE DIHED IMPRP ELECT VDW BOUNDARY MISC KINETIC TOTAL TEMP POTENTIAL TOTALAVG TEMPAVG PRESSURE GPRESSURE VOLUME PRESSAVG GPRESSAVG
ENERGY: 0 0.6143 1.5450 1.4812 0.0000 -10817.6403 1500.5639 0.0000 0.0000 1751.5979 -7561.8380 295.7866 -9313.4359 -7561.8380 295.7866 487.6573 561.3144 30358.3216 487.6573 561.3144
ENERGY: 300000 1.7877 2.2345 3.8023 0.0000 -10805.4415 1441.7651 0.0000 0.0000 1781.7141 -7574.1378 300.8723 -9355.8519 -7571.4488 297.8762 -85.3769 -56.9947 30521.9204 101.3566 152.9790
ENERGY: 600000 0.8820 1.1112 4.6441 0.0000 -10811.4731 1446.0731 0.0000 0.0000 1805.6342 -7553.1285 304.9116 -9358.7627 -7549.5113 301.5698 -173.4540 -151.9441 30736.4060 32.6962 81.4259
ENERGY: 900000 1.1742 3.1527 3.1377 0.0000 -10874.9335 1538.9826 0.0000 0.0000 1805.3339 -7523.1524 304.8608 -9328.4862 -7541.0654 301.9036 436.6676 464.2004 30984.9584 55.5246 103.9698
ENERGY: 1200000 3.0339 4.6568 0.9393 0.0000 -10880.7431 1518.7735 0.0000 0.0000 1825.3684 -7527.9713 308.2440 -9353.3397 -7536.4483 302.3188 560.6416 624.2206 30119.7328 61.7633 116.4900
ENERGY: 1500000 2.3973 3.7306 3.4897 0.0000 -10716.6063 1442.8108 0.0000 0.0000 1769.3516 -7494.8262 298.7846 -9264.1778 -7548.1676 301.3871 -105.0158 -22.4909 30933.9403 -27.3323 31.1470
TCL: Running FEP window   4: Lambda1 0.15000000000000002 Lambda2 0.2    [dLambda 0.04999999999999999]
TCL: Setting parameter firsttimestep to 0
TCL: Setting parameter alchLambda to 0.15000000000000002
Info: NONBONDED TABLE R-SQUARED SPACING: 0.0625
Info: NONBONDED TABLE SIZE: 705 POINTS
TCL: Setting parameter alchLambda2 to 0.2
Info: NONBONDED TABLE R-SQUARED SPACING: 0.0625
Info: NONBONDED TABLE SIZE: 705 POINTS
TCL: Running for 1500000 steps
ETITLE: TS BOND ANGLE DIHED IMPRP ELECT VDW BOUNDARY MISC KINETIC TOTAL TEMP POTENTIAL TOTALAVG TEMPAVG PRESSURE GPRESSURE VOLUME PRESSAVG GPRESSAVG
ENERGY: 0 2.3973 3.7306 3.4897 0.0000 -10716.6091 1442.7957 0.0000 0.0000 1768.4476 -7495.7482 298.6320 -9264.1958 -7495.7482 298.6320 -102.9429 -19.8657 30933.9403 -102.9429 -19.8657
ENERGY: 300000 6.4633 6.7017 2.3787 0.0000 -10974.4120 1583.3625 0.0000 0.0000 1759.5432 -7615.9627 297.1283 -9375.5059 -7549.1637 298.0490 755.4159 829.4271 30599.2221 166.6324 241.8574
ENERGY: 600000 0.5692 1.4544 1.3798 0.0000 -10763.1361 1448.9783 0.0000 0.0000 1764.7759 -7545.9787 298.0120 -9310.7545 -7533.2377 298.9894 -23.1343 102.4838 30581.3886 139.7053 220.2578
ENERGY: 900000 3.8734 3.0259 2.7043 0.0000 -10789.3295 1460.2777 0.0000 0.0000 1786.4111 -7533.0371 301.6654 -9319.4481 -7549.1801 298.9653 60.3346 23.5034 30629.4051 176.1090 239.3900
ENERGY: 1200000 2.6370 1.6218 2.4056 0.0000 -10810.0818 1491.2320 0.0000 0.0000 1790.1336 -7522.0517 302.2940 -9312.1854 -7546.1199 299.4489 350.3820 397.0616 30423.5819 157.0672 227.4499
ENERGY: 1500000 5.0529 4.2100 2.5431 0.0000 -10919.0197 1613.3994 0.0000 0.0000 1767.5256 -7526.2885 298.4763 -9293.8141 -7551.9445 299.2980 1197.2639 1311.6730 30426.0910 185.5991 259.7592
TCL: Running FEP window   5: Lambda1 0.2    Lambda2 0.25   [dLambda 0.04999999999999999]
TCL: Setting parameter firsttimestep to 0
TCL: Setting parameter alchLambda to 0.2
Info: NONBONDED TABLE R-SQUARED SPACING: 0.0625
Info: NONBONDED TABLE SIZE: 705 POINTS
TCL: Setting parameter alchLambda2 to 0.25
Info: NONBONDED TABLE R-SQUARED SPACING: 0.0625
Info: NONBONDED TABLE SIZE: 705 POINTS
TCL: Running for 1500000 steps
ETITLE: TS BOND ANGLE DIHED IMPRP ELECT VDW BOUNDARY MISC KINETIC TOTAL TEMP POTENTIAL TOTALAVG TEMPAVG PRESSURE GPRESSURE VOLUME PRESSAVG GPRESSAVG
ENERGY: 0 5.0529 4.2100 2.5431 0.0000 -10919.0197 1612.9095 0.0000 0.0000 1766.6676 -7527.6365 298.3314 -9294.3041 -7527.6365 298.3314 1216.2701 1313.2528 30426.0910 1216.2701 1313.2528
ENERGY: 300000 0.9296 1.2949 1.4147 0.0000 -10700.2902 1447.0710 0.0000 0.0000 1747.1299 -7502.4501 295.0321 -9249.5801 -7556.0269 296.9280 80.5714 207.9610 30612.9260 -55.8131 25.1000
ENERGY: 600000 2.2496 2.2528 2.8934 0.0000 -10829.3261 1468.8249 0.0000 0.0000 1804.6164 -7548.4889 304.7397 -9353.1054 -7564.3084 297.5200 -37.5226 13.3912 30589.1963 -98.7206 -27.2846
ENERGY: 900000 2.7612 2.2552 2.7641 0.0000 -10811.3970 1401.4996 0.0000 0.0000 1711.3555 -7690.7614 288.9910 -9402.1169 -7581.6484 297.3659 -627.1739 -573.5317 30300.7114 -179.5713 -116.2850
ENERGY: 1200000 3.5186 2.8644 1.8930 0.0000 -10818.4970 1451.9423 0.0000 0.0000 1771.7307 -7586.5481 299.1864 -9358.2788 -7577.9796 297.5992 -10.0750 9.0187 30652.3192 -198.6955 -136.3603
ENERGY: 1500000 2.7657 2.3484 1.8318 0.0000 -10781.1621 1469.9389 0.0000 0.0000 1798.6545 -7505.6227 303.7329 -9304.2772 -7567.4633 298.3206 233.3885 242.3294 30495.5177 -128.0050 -67.0042
TCL: Running FEP window   6: Lambda1 0.25   Lambda2 0.3    [dLambda 0.04999999999999999]
TCL: Setting parameter firsttimestep to 0
TCL: Setting parameter alchLambda to 0.25
Info: NONBONDED TABLE R-SQUARED SPACING: 0.0625
Info: NONBONDED TABLE SIZE: 705 POINTS
TCL: Setting parameter alchLambda2 to 0.3
Info: NONBONDED TABLE R-SQUARED SPACING: 0.0625
Info: NONBONDED TABLE SIZE: 705 POINTS
TCL: Running for 1500000 steps
ETITLE: TS BOND ANGLE DIHED IMPRP ELECT VDW BOUNDARY MISC KINETIC TOTAL TEMP POTENTIAL TOTALAVG TEMPAVG PRESSURE GPRESSURE VOLUME PRESSAVG GPRESSAVG
ENERGY: 0 2.7657 2.3484 1.8318 0.0000 -10781.1639 1472.1911 0.0000 0.0000 1797.7643 -7504.2625 303.5826 -9302.0268 -7504.2625 303.5826 171.7954 258.2215 30495.5177 171.7954 258.2215
ENERGY: 300000 2.6837 3.4337 2.0134 0.0000 -10802.8508 1497.1911 0.0000 0.0000 1780.7016 -7516.8274 300.7013 -9297.5290 -7534.0285 299.6463 500.3062 560.4735 30457.9222 87.6278 145.5261
ENERGY: 600000 2.0986 3.2375 2.5747 0.0000 -10821.4590 1446.4127 0.0000 0.0000 1811.4977 -7555.6379 305.9017 -9367.1356 -7542.2245 301.0492 -120.2904 -71.9100 30530.1416 156.6661 209.8803
ENERGY: 900000 2.1531 3.8069 3.4400 0.0000 -10768.8653 1430.2174 0.0000 0.0000 1790.7961 -7538.4518 302.4059 -9329.2479 -7539.7670 300.4802 -237.6706 -129.2671 30420.5674 138.6389 197.1160
ENERGY: 1200000 0.4114 2.9875 2.0617 0.0000 -10716.4900 1437.4715 0.0000 0.0000 1835.2077 -7438.3503 309.9055 -9273.5579 -7533.8508 301.7927 74.8593 131.2999 30731.9622 222.8225 282.3583
ENERGY: 1500000 2.6659 1.1122 4.8965 0.0000 -10860.4333 1439.4448 0.0000 0.0000 1748.9448 -7663.3691 295.3386 -9412.3140 -7538.0555 301.5989 -552.0317 -426.7897 30897.6789 38.4502 104.0745
TCL: Running FEP window   7: Lambda1 0.3    Lambda2 0.35   [dLambda 0.04999999999999999]
TCL: Setting parameter firsttimestep to 0
TCL: Setting parameter alchLambda to 0.3
Info: NONBONDED TABLE R-SQUARED SPACING: 0.0625
Info: NONBONDED TABLE SIZE: 705 POINTS
TCL: Setting parameter alchLambda2 to 0.35
Info: NONBONDED TABLE R-SQUARED SPACING: 0.0625
Info: NONBONDED TABLE SIZE: 705 POINTS
TCL: Running for 1500000 steps
ETITLE: TS BOND ANGLE DIHED IMPRP ELECT VDW BOUNDARY MISC KINETIC TOTAL TEMP POTENTIAL TOTALAVG TEMPAVG PRESSURE GPRESSURE VOLUME PRESSAVG GPRESSAVG
ENERGY: 0 2.6659 1.1122 4.8965 0.0000 -10860.4337 1439.0373 0.0000 0.0000 1748.0470 -7664.6749 295.1870 -9412.7219 -7664.6749 295.1870 -511.9468 -425.8600 30897.6789 -511.9468 -425.8600
ENERGY: 300000 2.7214 2.9821 4.5829 0.0000 -10723.9852 1384.3033 0.0000 0.0000 1774.0091 -7555.3864 299.5711 -9329.3955 -7576.9647 300.4557 -213.5608 -131.7486 30252.9693 -303.7504 -229.5906
ENERGY: 600000 3.0672 2.6227 3.4711 0.0000 -10867.1706 1531.6143 0.0000 0.0000 1826.2346 -7500.1605 308.3903 -9326.3951 -7562.0562 300.7216 600.8321 629.1300 30788.4592 -42.4927 22.1908
ENERGY: 900000 2.9270 0.7007 3.4732 0.0000 -10927.9635 1553.9801 0.0000 0.0000 1795.6629 -7571.2197 303.2277 -9366.8826 -7569.8553 299.9164 587.0563 623.7429 30601.6052 172.8590 235.2534
ENERGY: 1200000 3.2414 2.3453 2.0690 0.0000 -10781.5036 1442.8111 0.0000 0.0000 1826.1212 -7504.9156 308.3711 -9331.0368 -7561.6944 300.9745 156.6391 201.7921 30417.0645 115.7367 175.0832
ENERGY: 1500000 2.1010 3.2809 4.3814 0.0000 -10830.6273 1514.0977 0.0000 0.0000 1805.5911 -7501.1753 304.9043 -9306.7663 -7553.9582 301.0086 474.6713 543.2556 30589.3037 114.1443 176.8215
TCL: Running FEP window   8: Lambda1 0.35   Lambda2 0.39999999999999997 [dLambda 0.04999999999999999]
TCL: Setting parameter firsttimestep to 0
TCL: Setting parameter alchLambda to 0.35
Info: NONBONDED TABLE R-SQUARED SPACING: 0.0625
Info: NONBONDED TABLE SIZE: 705 POINTS
TCL: Setting parameter alchLambda2 to 0.39999999999999997
Info: NONBONDED TABLE R-SQUARED SPACING: 0.0625
Info: NONBONDED TABLE SIZE: 705 POINTS
TCL: Running for 1500000 steps
ETITLE: TS BOND ANGLE DIHED IMPRP ELECT VDW BOUNDARY MISC KINETIC TOTAL TEMP POTENTIAL TOTALAVG TEMPAVG PRESSURE GPRESSURE VOLUME PRESSAVG GPRESSAVG
ENERGY: 0 2.1010 3.2809 4.3814 0.0000 -10830.6271 1514.5026 0.0000 0.0000 1804.7218 -7501.6393 304.7575 -9306.3611 -7501.6393 304.7575 474.9210 552.8085 30589.3037 474.9210 552.8085
ENERGY: 300000 1.0586 2.8506 3.8358 0.0000 -10768.6255 1447.6565 0.0000 0.0000 1810.8979 -7502.3260 305.8004 -9313.2239 -7506.7050 302.7061 25.4760 117.8588 30774.5027 216.6067 316.4805
ENERGY: 600000 2.7261 6.8502 3.1044 0.0000 -10699.2442 1326.5533 0.0000 0.0000 1764.5609 -7595.4493 297.9756 -9360.0102 -7529.4609 301.9538 -1030.1677 -972.3022 30547.7463 -39.1052 56.1846
ENERGY: 900000 2.9489 4.0964 3.4001 0.0000 -10914.7884 1499.8550 0.0000 0.0000 1795.6003 -7608.8876 303.2172 -9404.4879 -7546.4538 301.0974 337.9379 325.4330 30236.5413 -2.3383 73.2712
ENERGY: 1200000 3.1188 1.2909 2.6070 0.0000 -10668.9742 1379.3701 0.0000 0.0000 1667.9687 -7614.6187 281.6644 -9282.5874 -7550.2245 299.4361 -714.1540 -665.4483 30953.5289 -44.0535 25.5947
ENERGY: 1500000 3.5105 1.5776 1.2119 0.0000 -10816.1008 1496.0949 0.0000 0.0000 1754.2814 -7559.4244 296.2398 -9313.7058 -7548.0175 299.1567 230.7340 288.6570 30960.5443 -79.2862 -10.3113
TCL: Running FEP window   9: Lambda1 0.39999999999999997 Lambda2 0.44999999999999996 [dLambda 0.04999999999999999]
TCL: Setting parameter firsttimestep to 0
TCL: Setting parameter alchLambda to 0.39999999999999997
Info: NONBONDED TABLE R-SQUARED SPACING: 0.0625
Info: NONBONDED TABLE SIZE: 705 POINTS
TCL: Setting parameter alchLambda2 to 0.44999999999999996
Info: NONBONDED TABLE R-SQUARED SPACING: 0.0625
Info: NONBONDED TABLE SIZE: 705 POINTS
TCL: Running for 1500000 steps
ETITLE: TS BOND ANGLE DIHED IMPRP ELECT VDW BOUNDARY MISC KINETIC TOTAL TEMP POTENTIAL TOTALAVG TEMPAVG PRESSURE GPRESSURE VOLUME PRESSAVG GPRESSAVG
ENERGY: 0 3.5105 1.5776 1.2119 0.0000 -10816.1020 1496.1049 0.0000 0.0000 1753.3832 -7560.3139 296.0881 -9313.6971 -7560.3139 296.0881 214.7525 294.2601 30960.5443 214.7525 294.2601
ENERGY: 300000 2.4619 1.2540 4.1840 0.0000 -10835.9290 1458.9235 0.0000 0.0000 1732.5918 -7636.5138 292.5771 -9369.1056 -7543.9664 300.3441 147.9711 167.5096 30191.5325 -34.6879 6.9454
ENERGY: 600000 2.1484 1.4578 2.5284 0.0000 -10748.4303 1408.7545 0.0000 0.0000 1752.0983 -7581.4430 295.8711 -9333.5413 -7550.0780 299.4192 -463.0717 -439.8781 30599.2393 -245.2147 -186.3133
ENERGY: 900000 4.5854 2.1956 1.1399 0.0000 -10849.7708 1489.1242 0.0000 0.0000 1746.6312 -7606.0945 294.9479 -9352.7257 -7564.1319 299.0165 275.7601 311.8025 30534.4496 -203.7771 -148.9664
ENERGY: 1200000 1.1470 2.9904 1.3361 0.0000 -10871.2117 1462.8252 0.0000 0.0000 1778.8106 -7624.1024 300.3820 -9402.9131 -7562.1536 299.1708 -77.0706 10.5581 30350.2651 -166.3540 -110.3990
ENERGY: 1500000 4.7181 1.2113 1.0283 0.0000 -10742.0936 1478.0855 0.0000 0.0000 1827.8832 -7429.1672 308.6687 -9257.0504 -7543.3631 300.3141 441.8090 502.8264 30893.5488 -102.3665 -49.2457
TCL: Running FEP window  10: Lambda1 0.44999999999999996 Lambda2 0.49999999999999994 [dLambda 0.04999999999999999]
TCL: Setting parameter firsttimestep to 0
TCL: Setting parameter alchLambda to 0.44999999999999996
Info: NONBONDED TABLE R-SQUARED SPACING: 0.0625
Info: NONBONDED TABLE SIZE: 705 POINTS
TCL: Setting parameter alchLambda2 to 0.49999999999999994
Info: NONBONDED TABLE R-SQUARED SPACING: 0.0625
Info: NONBONDED TABLE SIZE: 705 POINTS
TCL: Running for 1500000 steps
ETITLE: TS BOND ANGLE DIHED IMPRP ELECT VDW BOUNDARY MISC KINETIC TOTAL TEMP POTENTIAL TOTALAVG TEMPAVG PRESSURE GPRESSURE VOLUME PRESSAVG GPRESSAVG
ENERGY: 0 4.7181 1.2113 1.0283 0.0000 -10742.0935 1478.0964 0.0000 0.0000 1826.9882 -7430.0512 308.5175 -9257.0394 -7430.0512 308.5175 434.6432 509.1532 30893.5488 434.6432 509.1532
ENERGY: 300000 4.7997 3.0574 3.1243 0.0000 -10861.0395 1497.2843 0.0000 0.0000 1771.7852 -7580.9887 299.1956 -9352.7739 -7531.6098 303.0785 64.7122 133.7924 30650.4894 29.5256 100.1197
ENERGY: 600000 3.3109 5.4803 4.9210 0.0000 -10825.8286 1505.4543 0.0000 0.0000 1805.2184 -7501.4437 304.8414 -9306.6621 -7524.3570 304.4737 737.4668 785.1494 29973.6095 2.7217 57.5594
ENERGY: 900000 4.2881 2.1383 1.2047 0.0000 -10812.1015 1488.2174 0.0000 0.0000 1818.4936 -7497.7593 307.0831 -9316.2529 -7533.4572 303.9095 579.7438 547.8377 30329.6732 39.0961 89.9265
ENERGY: 1200000 1.0984 1.9768 5.1136 0.0000 -10811.1310 1445.5569 0.0000 0.0000 1682.3278 -7675.0575 284.0892 -9357.3853 -7547.2015 301.7154 -19.0507 20.5472 30275.2770 45.2554 92.3181
ENERGY: 1500000 2.8797 2.4976 2.5200 0.0000 -10720.9084 1508.2067 0.0000 0.0000 1777.0844 -7427.7199 300.0905 -9204.8043 -7545.1297 300.8874 662.8650 741.4175 30855.4187 90.6318 142.2126
TCL: Running FEP window  11: Lambda1 0.49999999999999994 Lambda2 0.5499999999999999 [dLambda 0.04999999999999999]
TCL: Setting parameter firsttimestep to 0
TCL: Setting parameter alchLambda to 0.49999999999999994
Info: NONBONDED TABLE R-SQUARED SPACING: 0.0625
Info: NONBONDED TABLE SIZE: 705 POINTS
TCL: Setting parameter alchLambda2 to 0.5499999999999999
Info: NONBONDED TABLE R-SQUARED SPACING: 0.0625
Info: NONBONDED TABLE SIZE: 705 POINTS
TCL: Running for 1500000 steps
ETITLE: TS BOND ANGLE DIHED IMPRP ELECT VDW BOUNDARY MISC KINETIC TOTAL TEMP POTENTIAL TOTALAVG TEMPAVG PRESSURE GPRESSURE VOLUME PRESSAVG GPRESSAVG
ENERGY: 0 2.8797 2.4976 2.5200 0.0000 -10720.9079 1507.9939 0.0000 0.0000 1776.1766 -7428.8401 299.9371 -9205.0166 -7428.8401 299.9371 667.5061 744.5266 30855.4187 667.5061 744.5266
ENERGY: 300000 2.3480 4.6516 1.0491 0.0000 -10920.1408 1518.0443 0.0000 0.0000 1730.2129 -7663.8349 292.1754 -9394.0478 -7529.5701 297.8251 201.5779 265.1365 30592.3214 195.6299 246.7651
ENERGY: 600000 5.8728 2.4083 2.6215 0.0000 -10875.7265 1469.8904 0.0000 0.0000 1732.7477 -7662.1856 292.6035 -9394.9334 -7563.2951 299.6782 -209.7310 -131.1827 30595.1298 181.5636 231.7009
ENERGY: 900000 1.1034 2.9330 2.7662 0.0000 -10805.7510 1497.3678 0.0000 0.0000 1767.8718 -7533.7088 298.5347 -9301.5806 -7561.6684 298.3521 278.5997 283.5539 30997.6713 143.9023 200.9155
ENERGY: 1200000 1.2519 3.5306 2.0198 0.0000 -10822.8832 1521.3150 0.0000 0.0000 1814.5593 -7480.2065 306.4187 -9294.7658 -7561.9566 299.9303 557.0120 597.6411 30881.7774 103.2520 156.7884
ENERGY: 1500000 2.8270 1.6743 1.7843 0.0000 -10767.1237 1433.3522 0.0000 0.0000 1774.6106 -7552.8753 299.6727 -9327.4859 -7556.2744 299.6514 -418.0544 -389.3848 31052.1231 18.3050 66.9111
TCL: Running FEP window  12: Lambda1 0.5499999999999999 Lambda2 0.6    [dLambda 0.050000000000000044]
TCL: Setting parameter firsttimestep to 0
TCL: Setting parameter alchLambda to 0.5499999999999999
Info: NONBONDED TABLE R-SQUARED SPACING: 0.0625
Info: NONBONDED TABLE SIZE: 705 POINTS
TCL: Setting parameter alchLambda2 to 0.6
Info: NONBONDED TABLE R-SQUARED SPACING: 0.0625
Info: NONBONDED TABLE SIZE: 705 POINTS
TCL: Running for 1500000 steps
ETITLE: TS BOND ANGLE DIHED IMPRP ELECT VDW BOUNDARY MISC KINETIC TOTAL TEMP POTENTIAL TOTALAVG TEMPAVG PRESSURE GPRESSURE VOLUME PRESSAVG GPRESSAVG
ENERGY: 0 2.8270 1.6743 1.7843 0.0000 -10767.0734 1433.8929 0.0000 0.0000 1773.6960 -7553.1989 299.5183 -9326.8948 -7553.1989 299.5183 -432.0090 -373.9560 31052.1231 -432.0090 -373.9560
ENERGY: 300000 2.8466 1.8554 3.3778 0.0000 -10787.5978 1487.3015 0.0000 0.0000 1767.4747 -7524.7419 298.4677 -9292.2166 -7553.1045 299.4167 288.3206 355.7252 30740.0431 -324.1511 -275.8839
ENERGY: 600000 3.0014 2.1084 2.0242 0.0000 -10867.5048 1483.8283 0.0000 0.0000 1723.7090 -7652.8335 291.0771 -9376.5424 -7560.2023 299.2829 -139.1316 -50.1476 30648.0961 -213.4640 -151.5464
ENERGY: 900000 2.6392 1.7424 1.3080 0.0000 -10706.9792 1409.2506 0.0000 0.0000 1795.6334 -7496.4056 303.2228 -9292.0390 -7549.0959 300.6618 -206.2153 -143.2803 30811.3329 -103.8724 -35.2091
ENERGY: 1200000 2.7975 1.0909 2.4778 0.0000 -10664.6336 1380.5111 0.0000 0.0000 1781.5217 -7496.2346 300.8398 -9277.7564 -7530.7358 301.9626 -654.2212 -590.7933 30931.1878 -60.2861 4.6034
ENERGY: 1500000 1.8831 1.9945 3.2989 0.0000 -10781.4354 1458.2335 0.0000 0.0000 1804.4007 -7511.6248 304.7033 -9316.0255 -7530.3468 301.7802 154.6742 241.5389 30646.1947 -70.0624 -1.9396
TCL: Running FEP window  13: Lambda1 0.6    Lambda2 0.65   [dLambda 0.050000000000000044]
TCL: Setting parameter firsttimestep to 0
TCL: Setting parameter alchLambda to 0.6
Info: NONBONDED TABLE R-SQUARED SPACING: 0.0625
Info: NONBONDED TABLE SIZE: 705 POINTS
TCL: Setting parameter alchLambda2 to 0.65
Info: NONBONDED TABLE R-SQUARED SPACING: 0.0625
Info: NONBONDED TABLE SIZE: 705 POINTS
TCL: Running for 1500000 steps
ETITLE: TS BOND ANGLE DIHED IMPRP ELECT VDW BOUNDARY MISC KINETIC TOTAL TEMP POTENTIAL TOTALAVG TEMPAVG PRESSURE GPRESSURE VOLUME PRESSAVG GPRESSAVG
ENERGY: 0 1.8831 1.9945 3.2989 0.0000 -10780.9397 1459.1869 0.0000 0.0000 1803.5392 -7511.0371 304.5578 -9314.5763 -7511.0371 304.5578 173.8506 259.7535 30646.1947 173.8506 259.7535
ENERGY: 300000 2.3583 2.4275 1.1000 0.0000 -10847.8988 1520.9833 0.0000 0.0000 1816.4882 -7504.5414 306.7445 -9321.0296 -7544.7572 303.2965 765.3758 702.0229 30169.2528 255.8466 283.0253
ENERGY: 600000 1.4103 3.6067 0.9156 0.0000 -10820.3405 1515.0884 0.0000 0.0000 1789.5260 -7509.7935 302.1914 -9299.3195 -7542.5126 301.9105 442.0119 526.7662 30888.7585 142.1223 192.2959
ENERGY: 900000 0.6965 4.9531 1.5845 0.0000 -10938.4021 1622.4762 0.0000 0.0000 1744.9296 -7563.7622 294.6606 -9308.6918 -7553.9652 300.0686 1448.1461 1509.1654 30513.3219 250.8408 302.6365
ENERGY: 1200000 0.9513 3.3169 1.8077 0.0000 -10735.0920 1417.8720 0.0000 0.0000 1749.0876 -7562.0566 295.3627 -9311.1441 -7564.2805 299.1114 -270.5325 -224.4447 30700.6007 173.1147 223.9592
ENERGY: 1500000 2.2014 1.2657 5.4424 0.0000 -10701.5706 1358.6258 0.0000 0.0000 1736.8908 -7597.1444 293.3031 -9334.0352 -7560.6476 299.4814 -951.6176 -848.6169 31062.6908 89.3442 145.6637
TCL: Running FEP window  14: Lambda1 0.65   Lambda2 0.7000000000000001 [dLambda 0.050000000000000044]
TCL: Setting parameter firsttimestep to 0
TCL: Setting parameter alchLambda to 0.65
Info: NONBONDED TABLE R-SQUARED SPACING: 0.0625
Info: NONBONDED TABLE SIZE: 705 POINTS
TCL: Setting parameter alchLambda2 to 0.7000000000000001
Info: NONBONDED TABLE R-SQUARED SPACING: 0.0625
Info: NONBONDED TABLE SIZE: 705 POINTS
TCL: Running for 1500000 steps
ETITLE: TS BOND ANGLE DIHED IMPRP ELECT VDW BOUNDARY MISC KINETIC TOTAL TEMP POTENTIAL TOTALAVG TEMPAVG PRESSURE GPRESSURE VOLUME PRESSAVG GPRESSAVG
ENERGY: 0 2.2014 1.2657 5.4424 0.0000 -10701.8834 1358.7309 0.0000 0.0000 1736.0079 -7598.2351 293.1540 -9334.2430 -7598.2351 293.1540 -917.4786 -836.7496 31062.6908 -917.4786 -836.7496
ENERGY: 300000 1.5817 1.0934 3.4599 0.0000 -10750.8825 1393.4377 0.0000 0.0000 1769.7149 -7581.5949 298.8460 -9351.3098 -7584.9879 298.6889 -706.2071 -669.2276 30990.1227 -371.3684 -310.1510
ENERGY: 600000 4.0726 1.3645 3.0048 0.0000 -10754.7709 1425.1212 0.0000 0.0000 1791.1018 -7530.1060 302.4575 -9321.2078 -7570.1263 299.0360 -127.1235 -93.8375 30485.0209 -178.8079 -122.3931
ENERGY: 900000 0.8879 2.5481 3.1523 0.0000 -10635.5730 1324.2805 0.0000 0.0000 1808.1053 -7496.5990 305.3289 -9304.7043 -7549.7420 301.3440 -913.6457 -883.5179 31120.0056 -311.3882 -259.3895
ENERGY: 1200000 1.3427 3.9785 1.2825 0.0000 -10686.2261 1379.9758 0.0000 0.0000 1765.8847 -7533.7620 298.1992 -9299.6467 -7545.4885 301.3234 -663.9158 -583.8285 30931.3879 -294.0540 -240.4551
ENERGY: 1500000 2.3115 4.8725 4.7160 0.0000 -10802.6716 1482.3544 0.0000 0.0000 1788.8542 -7519.5629 302.0780 -9308.4171 -7541.7376 301.6192 365.4749 415.2934 30498.7677 -190.8940 -131.4090
TCL: Running FEP window  15: Lambda1 0.7000000000000001 Lambda2 0.7500000000000001 [dLambda 0.050000000000000044]
TCL: Setting parameter firsttimestep to 0
TCL: Setting parameter alchLambda to 0.7000000000000001
Info: NONBONDED TABLE R-SQUARED SPACING: 0.0625
Info: NONBONDED TABLE SIZE: 705 POINTS
TCL: Setting parameter alchLambda2 to 0.7500000000000001
Info: NONBONDED TABLE R-SQUARED SPACING: 0.0625
Info: NONBONDED TABLE SIZE: 705 POINTS
TCL: Running for 1500000 steps
ETITLE: TS BOND ANGLE DIHED IMPRP ELECT VDW BOUNDARY MISC KINETIC TOTAL TEMP POTENTIAL TOTALAVG TEMPAVG PRESSURE GPRESSURE VOLUME PRESSAVG GPRESSAVG
ENERGY: 0 2.3115 4.8725 4.7160 0.0000 -10802.7327 1482.2805 0.0000 0.0000 1787.9940 -7520.5581 301.9327 -9308.5521 -7520.5581 301.9327 338.7330 424.0542 30498.7677 338.7330 424.0542
ENERGY: 300000 2.1774 4.1888 2.0698 0.0000 -10815.7999 1453.4240 0.0000 0.0000 1804.6164 -7549.3235 304.7397 -9353.9400 -7538.9890 300.0318 5.6146 106.1709 30673.3119 359.0847 422.8757
ENERGY: 600000 2.7502 1.3782 1.8554 0.0000 -10767.6426 1399.5676 0.0000 0.0000 1773.0356 -7589.0557 299.4068 -9362.0913 -7540.9717 297.7510 -408.5501 -364.6152 30543.2562 80.4301 128.4532
ENERGY: 900000 3.0225 6.9376 4.2626 0.0000 -10887.1629 1457.0572 0.0000 0.0000 1797.4118 -7618.4712 303.5231 -9415.8831 -7552.5078 299.0076 -225.7948 -187.4892 30478.2775 -24.4395 22.9107
ENERGY: 1200000 1.7184 2.2031 3.7579 0.0000 -10696.1294 1379.9705 0.0000 0.0000 1825.1835 -7483.2960 308.2128 -9308.4795 -7537.9244 301.3595 -637.2630 -555.8875 30757.6994 -1.5904 51.1551
ENERGY: 1500000 1.5619 1.1770 2.3382 0.0000 -10805.2076 1426.0281 0.0000 0.0000 1766.8534 -7607.2490 298.3628 -9374.1024 -7537.8237 301.6274 -323.5084 -230.6053 30666.7808 -7.7239 47.8004
TCL: Running FEP window  16: Lambda1 0.7500000000000001 Lambda2 0.8000000000000002 [dLambda 0.050000000000000044]
TCL: Setting parameter firsttimestep to 0
TCL: Setting parameter alchLambda to 0.7500000000000001
Info: NONBONDED TABLE R-SQUARED SPACING: 0.0625
Info: NONBONDED TABLE SIZE: 705 POINTS
TCL: Setting parameter alchLambda2 to 0.8000000000000002
Info: NONBONDED TABLE R-SQUARED SPACING: 0.0625
Info: NONBONDED TABLE SIZE: 705 POINTS
TCL: Running for 1500000 steps
ETITLE: TS BOND ANGLE DIHED IMPRP ELECT VDW BOUNDARY MISC KINETIC TOTAL TEMP POTENTIAL TOTALAVG TEMPAVG PRESSURE GPRESSURE VOLUME PRESSAVG GPRESSAVG
ENERGY: 0 1.5619 1.1770 2.3382 0.0000 -10805.6689 1425.9379 0.0000 0.0000 1765.9984 -7608.6554 298.2184 -9374.6538 -7608.6554 298.2184 -316.8400 -229.3190 30666.7808 -316.8400 -229.3190
ENERGY: 300000 2.4241 3.5217 5.5056 0.0000 -10827.6694 1526.1508 0.0000 0.0000 1751.8831 -7538.1840 295.8348 -9290.0671 -7590.2726 299.0633 866.0680 970.4491 30112.5813 121.3865 193.9555
ENERGY: 600000 3.6099 1.6605 4.9474 0.0000 -10904.1283 1508.5730 0.0000 0.0000 1789.2084 -7596.1291 302.1378 -9385.3375 -7590.3016 299.8252 53.7400 130.3500 30724.3787 50.7866 120.1462
ENERGY: 900000 3.1302 0.9738 3.0752 0.0000 -10674.5515 1365.3371 0.0000 0.0000 1776.6336 -7525.4017 300.0143 -9302.0352 -7585.2759 299.0524 -729.2079 -666.5907 30929.3230 10.3483 74.5035
ENERGY: 1200000 2.1909 4.6595 2.1118 0.0000 -10819.9918 1472.4879 0.0000 0.0000 1776.0065 -7562.5353 299.9084 -9338.5417 -7586.3465 298.4772 275.7212 338.8751 30274.8749 -29.2412 35.4776
ENERGY: 1500000 2.3700 4.7615 0.7104 0.0000 -10853.3144 1458.6670 0.0000 0.0000 1746.0506 -7640.7547 294.8499 -9386.8053 -7596.2943 297.9395 -229.3160 -157.3161 31051.9206 -102.5443 -37.9464
TCL: Running FEP window  17: Lambda1 0.8000000000000002 Lambda2 0.8500000000000002 [dLambda 0.050000000000000044]
TCL: Setting parameter firsttimestep to 0
TCL: Setting parameter alchLambda to 0.8000000000000002
Info: NONBONDED TABLE R-SQUARED SPACING: 0.0625
Info: NONBONDED TABLE SIZE: 705 POINTS
TCL: Setting parameter alchLambda2 to 0.8500000000000002
Info: NONBONDED TABLE R-SQUARED SPACING: 0.0625
Info: NONBONDED TABLE SIZE: 705 POINTS
TCL: Running for 1500000 steps
ETITLE: TS BOND ANGLE DIHED IMPRP ELECT VDW BOUNDARY MISC KINETIC TOTAL TEMP POTENTIAL TOTALAVG TEMPAVG PRESSURE GPRESSURE VOLUME PRESSAVG GPRESSAVG
ENERGY: 0 2.3700 4.7615 0.7104 0.0000 -10853.6044 1458.2005 0.0000 0.0000 1745.1773 -7642.3846 294.7024 -9387.5619 -7642.3846 294.7024 -231.1557 -154.0448 31051.9206 -231.1557 -154.0448
ENERGY: 300000 3.0458 1.6748 2.2042 0.0000 -10847.8297 1461.4744 0.0000 0.0000 1732.5976 -7646.8329 292.5781 -9379.4305 -7610.0175 295.5850 96.8828 212.6916 30085.8222 -198.7326 -101.0625
ENERGY: 600000 1.1487 3.4336 3.0141 0.0000 -10863.0895 1492.8146 0.0000 0.0000 1793.6641 -7569.0145 302.8902 -9362.6786 -7572.7743 299.6166 441.7313 511.5868 30131.9752 -45.7603 45.3950
ENERGY: 900000 4.5908 2.0306 2.7857 0.0000 -10647.4295 1401.1598 0.0000 0.0000 1779.3235 -7457.5392 300.4686 -9236.8627 -7571.7851 299.3865 -275.2644 -217.0610 30970.5500 -153.4694 -66.7271
ENERGY: 1200000 1.2250 1.5478 2.0578 0.0000 -10781.9843 1505.9518 0.0000 0.0000 1815.5961 -7455.6058 306.5938 -9271.2019 -7553.2790 300.2356 539.8903 585.0518 31029.6883 -102.9192 -19.9671
ENERGY: 1500000 3.6497 3.2822 2.2037 0.0000 -10782.0326 1424.0330 0.0000 0.0000 1756.1457 -7592.7184 296.5546 -9348.8641 -7556.8602 300.0351 -516.7948 -459.4779 30983.5635 -103.9275 -29.0601
TCL: Running FEP window  18: Lambda1 0.8500000000000002 Lambda2 0.9000000000000002 [dLambda 0.050000000000000044]
TCL: Setting parameter firsttimestep to 0
TCL: Setting parameter alchLambda to 0.8500000000000002
Info: NONBONDED TABLE R-SQUARED SPACING: 0.0625
Info: NONBONDED TABLE SIZE: 705 POINTS
TCL: Setting parameter alchLambda2 to 0.9000000000000002
Info: NONBONDED TABLE R-SQUARED SPACING: 0.0625
Info: NONBONDED TABLE SIZE: 705 POINTS
TCL: Running for 1500000 steps
ETITLE: TS BOND ANGLE DIHED IMPRP ELECT VDW BOUNDARY MISC KINETIC TOTAL TEMP POTENTIAL TOTALAVG TEMPAVG PRESSURE GPRESSURE VOLUME PRESSAVG GPRESSAVG
ENERGY: 0 3.6497 3.2822 2.2037 0.0000 -10782.0028 1424.8456 0.0000 0.0000 1755.2538 -7592.7678 296.4040 -9348.0216 -7592.7678 296.4040 -501.3972 -438.8734 30983.5635 -501.3972 -438.8734
ENERGY: 300000 2.3170 0.5709 1.6346 0.0000 -10796.8922 1437.9474 0.0000 0.0000 1754.1858 -7600.2365 296.2236 -9354.4223 -7607.6809 296.9172 -27.2137 3.6705 30548.2332 168.3208 215.0905
ENERGY: 600000 2.2131 4.6605 2.1520 0.0000 -10800.3840 1504.4480 0.0000 0.0000 1840.4431 -7446.4673 310.7896 -9286.9104 -7575.4386 300.5411 767.1345 884.6049 30243.3464 247.6999 301.5996
ENERGY: 900000 1.4782 1.3495 4.0335 0.0000 -10854.5610 1445.7369 0.0000 0.0000 1743.1182 -7658.8447 294.3547 -9401.9629 -7568.1834 301.1810 73.7830 105.4156 30308.7313 231.2796 284.2554
ENERGY: 1200000 1.3679 1.8035 2.5508 0.0000 -10811.9289 1476.8934 0.0000 0.0000 1792.5001 -7536.8132 302.6937 -9329.3133 -7569.8033 300.2620 102.2307 153.0304 31121.0638 129.6214 177.1570
ENERGY: 1500000 2.8923 2.7557 1.1795 0.0000 -10829.0226 1458.8536 0.0000 0.0000 1790.3196 -7573.0220 302.3254 -9363.3416 -7574.8252 300.2885 -100.6198 -40.0414 30922.0924 76.4855 124.0072
TCL: Running FEP window  19: Lambda1 0.9000000000000002 Lambda2 0.9500000000000003 [dLambda 0.050000000000000044]
TCL: Setting parameter firsttimestep to 0
TCL: Setting parameter alchLambda to 0.9000000000000002
Info: NONBONDED TABLE R-SQUARED SPACING: 0.0625
Info: NONBONDED TABLE SIZE: 705 POINTS
TCL: Setting parameter alchLambda2 to 0.9500000000000003
Info: NONBONDED TABLE R-SQUARED SPACING: 0.0625
Info: NONBONDED TABLE SIZE: 705 POINTS
TCL: Running for 1500000 steps
ETITLE: TS BOND ANGLE DIHED IMPRP ELECT VDW BOUNDARY MISC KINETIC TOTAL TEMP POTENTIAL TOTALAVG TEMPAVG PRESSURE GPRESSURE VOLUME PRESSAVG GPRESSAVG
ENERGY: 0 2.8923 2.7557 1.1795 0.0000 -10829.4490 1458.9887 0.0000 0.0000 1789.4673 -7574.1656 302.1815 -9363.6329 -7574.1656 302.1815 -116.8785 -29.9100 30922.0924 -116.8785 -29.9100
ENERGY: 300000 1.6329 0.7456 3.1490 0.0000 -10769.4719 1498.6591 0.0000 0.0000 1813.1813 -7452.1040 306.1860 -9265.2853 -7524.3682 301.7482 307.1550 380.8436 31111.7295 215.9889 309.5736
ENERGY: 600000 1.8890 2.5084 2.3993 0.0000 -10716.4663 1403.1615 0.0000 0.0000 1784.4102 -7522.0979 301.3275 -9306.5081 -7528.0601 300.8071 -43.2816 5.5724 30690.6610 -46.0243 30.9037
ENERGY: 900000 2.9475 2.3079 1.7560 0.0000 -10669.6150 1379.1603 0.0000 0.0000 1762.8879 -7520.5556 297.6931 -9283.4435 -7531.7835 300.3271 -542.8354 -435.8584 30877.0945 -242.7413 -175.5090
ENERGY: 1200000 1.4091 2.3963 1.3658 0.0000 -10761.6096 1443.6147 0.0000 0.0000 1809.2812 -7503.5425 305.5274 -9312.8237 -7540.7091 300.6996 180.6026 264.0517 30535.2763 -236.1206 -164.9019
ENERGY: 1500000 1.4236 4.7380 1.1465 0.0000 -10833.9784 1456.1242 0.0000 0.0000 1781.7079 -7588.8381 300.8712 -9370.5460 -7543.6445 300.3400 -194.5031 -125.4535 30612.4046 -174.8294 -107.2463
TCL: Running FEP window  20: Lambda1 0.9500000000000003 Lambda2 1.0    [dLambda 0.04999999999999971]
TCL: Setting parameter firsttimestep to 0
TCL: Setting parameter alchLambda to 0.9500000000000003
Info: NONBONDED TABLE R-SQUARED SPACING: 0.0625
Info: NONBONDED TABLE SIZE: 705 POINTS
TCL: Setting parameter alchLambda2 to 1.0
Info: NONBONDED TABLE R-SQUARED SPACING: 0.0625
Info: NONBONDED TABLE SIZE: 705 POINTS
TCL: Running for 1500000 steps
ETITLE: TS BOND ANGLE DIHED IMPRP ELECT VDW BOUNDARY MISC KINETIC TOTAL TEMP POTENTIAL TOTALAVG TEMPAVG PRESSURE GPRESSURE VOLUME PRESSAVG GPRESSAVG
ENERGY: 0 1.4236 4.7380 1.1465 0.0000 -10834.1953 1456.6376 0.0000 0.0000 1780.8425 -7589.4069 300.7251 -9370.2495 -7589.4069 300.7251 -179.7709 -106.4923 30612.4046 -179.7709 -106.4923
ENERGY: 300000 0.8877 3.8244 0.9405 0.0000 -10648.0598 1336.7659 0.0000 0.0000 1818.0590 -7487.5824 307.0097 -9305.6415 -7520.5879 307.1589 -517.4534 -472.3729 30587.0334 -161.8103 -120.5466
ENERGY: 600000 1.3611 1.5434 3.1882 0.0000 -10707.9082 1351.5400 0.0000 0.0000 1791.3369 -7558.9386 302.4972 -9350.2755 -7544.5354 305.0578 -663.6446 -634.3157 30823.5415 -32.3074 18.5279
ENERGY: 900000 2.9326 2.3147 3.2785 0.0000 -10764.7685 1477.0511 0.0000 0.0000 1770.4161 -7508.7754 298.9644 -9279.1915 -7545.8365 303.4035 312.9412 415.3071 30732.1410 -28.9782 23.8109
ENERGY: 1200000 1.7487 3.5571 2.6938 0.0000 -10850.1875 1473.1069 0.0000 0.0000 1776.3705 -7592.7104 299.9699 -9369.0810 -7548.8728 302.3193 401.0180 433.3060 30382.0665 -91.9751 -40.3957
ENERGY: 1500000 2.8985 2.0563 2.7334 0.0000 -10709.5188 1381.8195 0.0000 0.0000 1822.4133 -7497.5977 307.7450 -9320.0110 -7545.3495 302.2900 -537.9855 -482.3054 30928.3520 -161.0360 -106.2232
TCL: Exiting due to exit command.
