Info: SIMULATION PARAMETERS:
Info: TIMESTEP               2
Info: NUMBER OF STEPS        0
Info: STEPS PER CYCLE        10
Info: PERIODIC CELL BASIS 1  41.123 0 0
Info: PERIODIC CELL BASIS 2  0 39.303 0
Info: PERIODIC CELL BASIS 3  0 0 42.247
Info: PERIODIC CELL CENTER   0 0 0
Info: WRAPPING WATERS AROUND PERIODIC BOUNDARIES ON OUTPUT.
Info: WRAPPING ALL CLUSTERS AROUND PERIODIC BOUNDARIES ON OUTPUT.
Info: FIRST LDB TIMESTEP     50
Info: LAST LDB TIMESTEP     -1
Info: HOM BACKGROUND SCALING 1
Info: PME BACKGROUND SCALING 1
Info: MIN ATOMS PER PATCH    40
Info: EMPTY PATCH LOAD       40 ATOMS
Info: INITIAL TEMPERATURE    300
Info: CENTER OF MASS MOVING INITIALLY? NO
Info: DIELECTRIC             1
Info: EXCLUDE                SCALED ONE-FOUR
Info: 1-4 ELECTROSTATICS SCALED BY 0.833333
Info: MODIFIED 1-4 VDW PARAMETERS WILL BE USED
Info: DCD FILENAME           mobley_4780078_min.dcd
Info: DCD FREQUENCY          5000
Info: DCD FIRST STEP         5000
Info: DCD FILE WILL CONTAIN UNIT CELL DATA
Info: XST FILENAME           mobley_4780078_min.xst
Info: XST FREQUENCY          5000
Info: NO VELOCITY DCD OUTPUT
Info: NO FORCE DCD OUTPUT
Info: OUTPUT FILENAME        mobley_4780078_min
Info: BINARY OUTPUT FILES WILL BE USED
Info: RESTART FILENAME       mobley_4780078_min.restart
Info: RESTART FREQUENCY      5000
Info: BINARY RESTART FILES WILL BE USED
Info: CUTOFF                 9
Info: PAIRLIST DISTANCE      11
Info: PAIRLIST SHRINK RATE   0.01
Info: PAIRLIST GROW RATE     0.01
Info: PAIRLIST TRIGGER       0.3
Info: PAIRLISTS PER CYCLE    2
Info: PAIRLISTS ENABLED
Info: MARGIN                 8
Info: HYDROGEN GROUP CUTOFF  2.5
Info: PATCH DIMENSION        21.5
Info: ENERGY OUTPUT STEPS    5000
Info: ENERGY EVALUATION STEPS    5000
Info: OUTPUT ENERGY PRECISION 4
Info: CROSSTERM ENERGY INCLUDED IN DIHEDRAL
Info: TIMING OUTPUT STEPS    50000
Info: PRESSURE OUTPUT STEPS  5000
Info: LANGEVIN DYNAMICS ACTIVE
Info: LANGEVIN TEMPERATURE   300
Info: LANGEVIN USING BBK INTEGRATOR
Info: LANGEVIN DAMPING COEFFICIENT IS 1 INVERSE PS
Info: LANGEVIN DYNAMICS APPLIED TO HYDROGENS
Info: LANGEVIN PISTON PRESSURE CONTROL ACTIVE
Info:        TARGET PRESSURE IS 1.01325 BAR
Info:     OSCILLATION PERIOD IS 50 FS
Info:             DECAY TIME IS 25 FS
Info:     PISTON TEMPERATURE IS 300 K
Info:       PRESSURE CONTROL IS GROUP-BASED
Info:    INITIAL STRAIN RATE IS 0 0 0
Info:       CELL FLUCTUATION IS ISOTROPIC
Info: PARTICLE MESH EWALD (PME) ACTIVE
Info: PME TOLERANCE               1e-06
Info: PME EWALD COEFFICIENT       0.348832
Info: PME INTERPOLATION ORDER     4
Info: PME GRID DIMENSIONS         44 40 44
Info: PME MAXIMUM GRID SPACING    1
Info: FULL ELECTROSTATIC EVALUATION FREQUENCY      2
Info: USING VERLET I (r-RESPA) MTS SCHEME.
Info: C1 SPLITTING OF LONG RANGE ELECTROSTATICS
Info: PLACING ATOMS IN PATCHES BY HYDROGEN GROUPS
Info: RIGID BONDS TO HYDROGEN : ALL
Info:         ERROR TOLERANCE : 1e-08
Info:          MAX ITERATIONS : 100
Info: RIGID WATER USING SETTLE ALGORITHM
Info: RANDOM NUMBER SEED     1741337642
Info: USE HYDROGEN BONDS?    NO
Info: Using AMBER format force field!
Info: AMBER PARM FILE        mobley_4780078.prmtop
Info: COORDINATE PDB         mobley_4780078.pdb
Info: Exclusions will be read from PARM file!
Info: SCNB (VDW SCALING)     2
Info: USING ARITHMETIC MEAN TO COMBINE L-J SIGMA PARAMETERS
Info: SUMMARY OF PARAMETERS:
Info: 8 BONDS
Info: 7 ANGLES
Info:   7 HARMONIC
Info:   0 COSINE-BASED
Info: 4 DIHEDRAL
Info: 0 IMPROPER
Info: 0 CROSSTERM
Info: 0 VDW
Info: 36 VDW_PAIRS
Info: 0 NBTHOLE_PAIRS
Info: STRUCTURE SUMMARY:
Info: 4978 ATOMS
Info: 4978 BONDS
Info: 31 ANGLES
Info: 43 DIHEDRALS
Info: 0 IMPROPERS
Info: 0 CROSSTERMS
Info: 5044 EXCLUSIONS
Info: 4969 RIGID BONDS
Info: 9965 DEGREES OF FREEDOM
Info: 1662 HYDROGEN GROUPS
Info: 4 ATOMS IN LARGEST HYDROGEN GROUP
Info: 1662 MIGRATION GROUPS
Info: 4 ATOMS IN LARGEST MIGRATION GROUP
Info: TOTAL MASS = 29902.6 amu
Info: TOTAL CHARGE = 2.23517e-08 e
Info: MASS DENSITY = 0.727214 g/cm^3
Info: ATOM DENSITY = 0.0729035 atoms/A^3
Info: ADDED 0 IMPLICIT EXCLUSIONS
Info: NONBONDED TABLE R-SQUARED SPACING: 0.0625
Info: NONBONDED TABLE SIZE: 705 POINTS
Info: REMOVING COM VELOCITY 0.0925431 -0.0627532 0.0240513
TCL: Minimizing for 2000 steps
ETITLE: TS BOND ANGLE DIHED IMPRP ELECT VDW BOUNDARY MISC KINETIC TOTAL TEMP POTENTIAL TOTAL3 TEMPAVG PRESSURE GPRESSURE VOLUME PRESSAVG GPRESSAVG
ENERGY: 0 0.2677 0.2332 0.0003 0.0000 -15553.2103 1786.2152 0.0000 0.0000 0.0000 -13766.4939 0.0000 -13766.4939 -13766.4939 0.0000 11341.8355 -15813.3942 68282.0208 11341.8355 -15813.3942
ENERGY: 400 39.0736 23.7478 1.3485 0.0000 -20858.3826 3007.5840 0.0000 0.0000 0.0000 -17786.6286 0.0000 -17786.6286 -17786.6286 0.0000 15682.5263 15834.1805 68282.0208 15682.5263 15834.1805
ENERGY: 800 1.0299 0.9433 0.6601 0.0000 -21939.6281 3535.3266 0.0000 0.0000 0.0000 -18401.6682 0.0000 -18401.6682 -18401.6682 0.0000 18177.8441 18286.3911 68282.0208 18177.8441 18286.3911
ENERGY: 1200 3.4333 1.2521 0.6282 0.0000 -22391.2516 3722.4442 0.0000 0.0000 0.0000 -18663.4938 0.0000 -18663.4938 -18663.4938 0.0000 19063.6326 19158.3892 68282.0208 19063.6326 19158.3892
ENERGY: 1600 1.7262 0.7120 0.7188 0.0000 -22695.8274 3854.5405 0.0000 0.0000 0.0000 -18838.1299 0.0000 -18838.1299 -18838.1299 0.0000 19747.4731 19830.8966 68282.0208 19747.4731 19830.8966
ENERGY: 2000 0.3639 0.2420 1.8673 0.0000 -22841.6868 3923.4950 0.0000 0.0000 0.0000 -18915.7186 0.0000 -18915.7186 -18915.7186 0.0000 20118.4140 20201.8801 68282.0208 20118.4140 20201.8801
TCL: Exiting due to exit command.
Info: NAMD 3.0.1 for Linux-x86_64-multicore
Info: Please visit http://www.ks.uiuc.edu/Research/namd/
Info: for updates, documentation, and support information.
Info: Please cite Phillips et al., J. Chem. Phys. 153:044130 (2020) doi:10.1063/5.0014475
Info: in all publications reporting results obtained with NAMD.
Info: Based on Charm++/Converse 80000 for multicore-linux-x86_64-gcc
Info: Built Mon Oct 14 11:11:06 CDT 2024 by dhardy on athine.ks.uiuc.edu
Info: 1 NAMD  3.0.1  Linux-x86_64-multicore  16    k062  z5358697
Info: Running on 16 processors, 1 nodes, 1 physical nodes.
Info: CPU topology information available.
Info: Charm++/Converse parallel runtime startup completed at 0.0330798 s
Info: 1043.46 MB of memory in use based on /proc/self/stat
Info: Configuration file is mobley_4780078_equil.namd
Info: Working in the current directory /srv/scratch/z5358697/prod_prep_5/4780078
TCL: Running 25000 steps at 30 kelvin.
TCL: Suspending until startup complete.
Info: SIMULATION PARAMETERS:
Info: TIMESTEP               2
Info: NUMBER OF STEPS        0
Info: STEPS PER CYCLE        10
Info: PERIODIC CELL BASIS 1  41.123 0 0
Info: PERIODIC CELL BASIS 2  0 39.303 0
Info: PERIODIC CELL BASIS 3  0 0 42.247
Info: PERIODIC CELL CENTER   0 0 0
Info: WRAPPING WATERS AROUND PERIODIC BOUNDARIES ON OUTPUT.
Info: WRAPPING ALL CLUSTERS AROUND PERIODIC BOUNDARIES ON OUTPUT.
Info: FIRST LDB TIMESTEP     50
Info: LAST LDB TIMESTEP     -1
Info: HOM BACKGROUND SCALING 1
Info: PME BACKGROUND SCALING 1
Info: MIN ATOMS PER PATCH    40
Info: EMPTY PATCH LOAD       40 ATOMS
Info: INITIAL TEMPERATURE    300
Info: CENTER OF MASS MOVING INITIALLY? NO
Info: DIELECTRIC             1
Info: EXCLUDE                SCALED ONE-FOUR
Info: 1-4 ELECTROSTATICS SCALED BY 0.833333
Info: MODIFIED 1-4 VDW PARAMETERS WILL BE USED
Info: DCD FILENAME           mobley_4780078_equil.dcd
Info: DCD FREQUENCY          5000
Info: DCD FIRST STEP         5000
Info: DCD FILE WILL CONTAIN UNIT CELL DATA
Info: XST FILENAME           mobley_4780078_equil.xst
Info: XST FREQUENCY          5000
Info: NO VELOCITY DCD OUTPUT
Info: NO FORCE DCD OUTPUT
Info: OUTPUT FILENAME        mobley_4780078_equil
Info: BINARY OUTPUT FILES WILL BE USED
Info: RESTART FILENAME       mobley_4780078_equil.restart
Info: RESTART FREQUENCY      5000
Info: BINARY RESTART FILES WILL BE USED
Info: CUTOFF                 9
Info: PAIRLIST DISTANCE      11
Info: PAIRLIST SHRINK RATE   0.01
Info: PAIRLIST GROW RATE     0.01
Info: PAIRLIST TRIGGER       0.3
Info: PAIRLISTS PER CYCLE    2
Info: PAIRLISTS ENABLED
Info: MARGIN                 8
Info: HYDROGEN GROUP CUTOFF  2.5
Info: PATCH DIMENSION        21.5
Info: ENERGY OUTPUT STEPS    5000
Info: ENERGY EVALUATION STEPS    5000
Info: OUTPUT ENERGY PRECISION 4
Info: CROSSTERM ENERGY INCLUDED IN DIHEDRAL
Info: TIMING OUTPUT STEPS    50000
Info: PRESSURE OUTPUT STEPS  5000
Info: LANGEVIN DYNAMICS ACTIVE
Info: LANGEVIN TEMPERATURE   30
Info: LANGEVIN USING BBK INTEGRATOR
Info: LANGEVIN DAMPING COEFFICIENT IS 1 INVERSE PS
Info: LANGEVIN DYNAMICS APPLIED TO HYDROGENS
Info: LANGEVIN PISTON PRESSURE CONTROL ACTIVE
Info:        TARGET PRESSURE IS 1.01325 BAR
Info:     OSCILLATION PERIOD IS 50 FS
Info:             DECAY TIME IS 25 FS
Info:     PISTON TEMPERATURE IS 300 K
Info:       PRESSURE CONTROL IS GROUP-BASED
Info:    INITIAL STRAIN RATE IS 0 0 0
Info:       CELL FLUCTUATION IS ISOTROPIC
Info: PARTICLE MESH EWALD (PME) ACTIVE
Info: PME TOLERANCE               1e-06
Info: PME EWALD COEFFICIENT       0.348832
Info: PME INTERPOLATION ORDER     4
Info: PME GRID DIMENSIONS         44 40 44
Info: PME MAXIMUM GRID SPACING    1
Info: FULL ELECTROSTATIC EVALUATION FREQUENCY      2
Info: USING VERLET I (r-RESPA) MTS SCHEME.
Info: C1 SPLITTING OF LONG RANGE ELECTROSTATICS
Info: PLACING ATOMS IN PATCHES BY HYDROGEN GROUPS
Info: RIGID BONDS TO HYDROGEN : ALL
Info:         ERROR TOLERANCE : 1e-08
Info:          MAX ITERATIONS : 100
Info: RIGID WATER USING SETTLE ALGORITHM
Info: RANDOM NUMBER SEED     1741337657
Info: USE HYDROGEN BONDS?    NO
Info: Using AMBER format force field!
Info: AMBER PARM FILE        mobley_4780078.prmtop
Info: COORDINATE PDB         mobley_4780078.pdb
Info: Exclusions will be read from PARM file!
Info: SCNB (VDW SCALING)     2
Info: USING ARITHMETIC MEAN TO COMBINE L-J SIGMA PARAMETERS
Info: BINARY COORDINATES     mobley_4780078_min.coor
Info: SUMMARY OF PARAMETERS:
Info: 8 BONDS
Info: 7 ANGLES
Info:   7 HARMONIC
Info:   0 COSINE-BASED
Info: 4 DIHEDRAL
Info: 0 IMPROPER
Info: 0 CROSSTERM
Info: 0 VDW
Info: 36 VDW_PAIRS
Info: 0 NBTHOLE_PAIRS
Info: STRUCTURE SUMMARY:
Info: 4978 ATOMS
Info: 4978 BONDS
Info: 31 ANGLES
Info: 43 DIHEDRALS
Info: 0 IMPROPERS
Info: 0 CROSSTERMS
Info: 5044 EXCLUSIONS
Info: 4969 RIGID BONDS
Info: 9965 DEGREES OF FREEDOM
Info: 1662 HYDROGEN GROUPS
Info: 4 ATOMS IN LARGEST HYDROGEN GROUP
Info: 1662 MIGRATION GROUPS
Info: 4 ATOMS IN LARGEST MIGRATION GROUP
Info: TOTAL MASS = 29902.6 amu
Info: TOTAL CHARGE = 2.23517e-08 e
Info: MASS DENSITY = 0.727214 g/cm^3
Info: ATOM DENSITY = 0.0729035 atoms/A^3
Info: ADDED 0 IMPLICIT EXCLUSIONS
Info: NONBONDED TABLE R-SQUARED SPACING: 0.0625
Info: NONBONDED TABLE SIZE: 705 POINTS
Info: REMOVING COM VELOCITY -0.0368292 0.0128605 0.00220773
TCL: Running for 25000 steps
ETITLE: TS BOND ANGLE DIHED IMPRP ELECT VDW BOUNDARY MISC KINETIC TOTAL TEMP POTENTIAL TOTAL3 TEMPAVG PRESSURE GPRESSURE VOLUME PRESSAVG GPRESSAVG
ENERGY: 0 0.3639 0.2420 1.8673 0.0000 -22841.6868 3923.4950 0.0000 0.0000 2939.4645 -15976.2542 296.8802 -18915.7186 -15975.6608 296.8802 147.6609 184.7038 68282.0208 147.6609 184.7038
ENERGY: 5000 0.3291 0.5430 0.8001 0.0000 -23721.3410 4000.4291 0.0000 0.0000 312.6503 -19406.5893 31.5771 -19719.2396 -19405.8871 46.9769 -716.9555 -643.8890 48958.0026 1.1299 1.0551
ENERGY: 10000 0.4524 0.6969 0.7696 0.0000 -23886.4180 4138.5008 0.0000 0.0000 300.6506 -19445.3476 30.3651 -19745.9982 -19444.3672 30.2154 -58.1488 -4.7428 48830.8899 3.1385 3.1252
ENERGY: 15000 0.4535 0.6488 0.6623 0.0000 -23948.6900 4190.8303 0.0000 0.0000 294.3285 -19461.7664 29.7266 -19756.0950 -19461.1424 29.9914 190.9244 245.9893 48758.4516 4.7535 4.5766
ENERGY: 20000 0.8188 1.1548 0.4546 0.0000 -23841.1169 4074.9842 0.0000 0.0000 293.3164 -19470.3881 29.6244 -19763.7046 -19469.9683 29.9092 -434.4850 -382.2103 48875.5095 5.2336 5.2703
ENERGY: 25000 0.3877 0.6507 0.8021 0.0000 -23842.7988 4078.9754 0.0000 0.0000 303.3503 -19458.6325 30.6378 -19761.9828 -19457.6404 30.0853 -425.7315 -366.6338 48869.2356 1.8092 1.8105
TCL: Running 25000 steps at 60 kelvin.
TCL: Setting parameter langevinTemp to 60
TCL: Running for 25000 steps
ETITLE: TS BOND ANGLE DIHED IMPRP ELECT VDW BOUNDARY MISC KINETIC TOTAL TEMP POTENTIAL TOTAL3 TEMPAVG PRESSURE GPRESSURE VOLUME PRESSAVG GPRESSAVG
ENERGY: 25000 0.3877 0.6507 0.8021 0.0000 -23842.7988 4078.9754 0.0000 0.0000 303.2029 -19458.7799 30.6229 -19761.9828 -19458.1840 30.6229 -422.6249 -366.5021 48869.2356 -422.6249 -366.5021
ENERGY: 30000 0.5112 2.3049 1.4250 0.0000 -23727.4806 4216.4054 0.0000 0.0000 581.5293 -18925.3047 58.7333 -19506.8341 -18923.8675 57.6545 877.4322 943.4998 48737.0978 2.0205 2.4496
ENERGY: 35000 1.4053 1.8958 0.6697 0.0000 -23604.6368 4058.5452 0.0000 0.0000 591.3939 -18950.7270 59.7296 -19542.1209 -18949.6360 59.8025 59.0806 108.4902 48737.3665 -2.5521 -2.2387
ENERGY: 40000 0.9748 1.0877 1.2060 0.0000 -23516.3324 3951.4127 0.0000 0.0000 583.9206 -18977.7307 58.9749 -19561.6512 -18975.1183 60.1883 -468.9921 -431.6646 48780.0510 -0.0393 0.3172
ENERGY: 45000 0.4794 1.6840 1.4433 0.0000 -23736.4997 4120.1280 0.0000 0.0000 597.4230 -19015.3419 60.3386 -19612.7649 -19014.1237 59.8107 310.3286 374.3523 48509.5594 2.4234 2.2975
ENERGY: 50000 0.9515 0.7769 1.4407 0.0000 -23750.3684 4105.3219 0.0000 0.0000 592.5644 -19049.3131 59.8479 -19641.8775 -19047.6564 60.2803 168.3834 230.7208 48485.1335 3.5381 3.7551
TCL: Running 25000 steps at 90 kelvin.
TCL: Setting parameter langevinTemp to 90
TCL: Running for 25000 steps
ETITLE: TS BOND ANGLE DIHED IMPRP ELECT VDW BOUNDARY MISC KINETIC TOTAL TEMP POTENTIAL TOTAL3 TEMPAVG PRESSURE GPRESSURE VOLUME PRESSAVG GPRESSAVG
ENERGY: 50000 0.9515 0.7769 1.4407 0.0000 -23750.3684 4105.3219 0.0000 0.0000 592.2719 -19049.6056 59.8183 -19641.8775 -19048.3967 59.8183 167.2665 230.8637 48485.1335 167.2665 230.8637
ENERGY: 55000 0.7816 1.7725 1.1300 0.0000 -23301.3961 3985.4230 0.0000 0.0000 887.2599 -18425.0291 89.6115 -19312.2889 -18423.3133 86.7249 138.7188 231.7851 48923.3295 -0.5163 -0.8420
ENERGY: 60000 0.4852 0.9721 2.0438 0.0000 -23405.8374 4027.6181 0.0000 0.0000 894.1008 -18480.6174 90.3025 -19374.7182 -18478.3857 89.8898 268.2956 345.1841 48754.1845 1.4321 1.4303
ENERGY: 65000 1.5434 1.5849 1.2610 0.0000 -23168.8477 3788.9439 0.0000 0.0000 878.7138 -18496.8007 88.7484 -19375.5146 -18494.5512 90.3155 -931.2789 -873.8815 49033.0696 1.1742 1.4428
ENERGY: 70000 2.1375 2.2755 2.3824 0.0000 -23462.3636 4039.1904 0.0000 0.0000 915.7554 -18500.6223 92.4895 -19416.3778 -18498.1270 90.0925 333.9265 392.9047 48475.3434 -0.2897 -0.3566
ENERGY: 75000 1.3721 1.3180 1.4890 0.0000 -23328.9899 3868.5654 0.0000 0.0000 890.1964 -18566.0490 89.9081 -19456.2454 -18563.7851 90.4714 -721.1099 -647.6469 48804.1861 0.9134 1.1200
TCL: Running 25000 steps at 120 kelvin.
TCL: Setting parameter langevinTemp to 120
TCL: Running for 25000 steps
ETITLE: TS BOND ANGLE DIHED IMPRP ELECT VDW BOUNDARY MISC KINETIC TOTAL TEMP POTENTIAL TOTAL3 TEMPAVG PRESSURE GPRESSURE VOLUME PRESSAVG GPRESSAVG
ENERGY: 75000 1.3721 1.3180 1.4890 0.0000 -23328.9899 3868.5654 0.0000 0.0000 889.7418 -18566.5036 89.8622 -19456.2454 -18564.5060 89.8622 -704.9040 -647.9351 48804.1861 -704.9040 -647.9351
ENERGY: 80000 1.8743 3.1811 2.6996 0.0000 -23008.0604 3915.7106 0.0000 0.0000 1166.2194 -17918.3755 117.7859 -19084.5949 -17914.8493 115.9774 477.0408 496.1008 48502.9369 -1.8716 -1.8018
ENERGY: 85000 2.0464 2.7375 2.6486 0.0000 -22990.5997 3842.9456 0.0000 0.0000 1216.7618 -17923.4598 122.8906 -19140.2216 -17920.9342 119.6437 -69.8820 -17.1614 48544.8219 3.9790 3.3742
ENERGY: 90000 1.2930 3.0733 2.6280 0.0000 -23182.8535 3999.7537 0.0000 0.0000 1192.6195 -17983.4860 120.4523 -19176.1055 -17980.5224 120.8767 758.8576 818.9597 48190.5941 4.1734 4.0005
ENERGY: 95000 0.7800 2.4196 2.4229 0.0000 -23058.9147 3855.8535 0.0000 0.0000 1169.6920 -18027.7468 118.1366 -19197.4388 -18024.3988 120.8006 -45.2200 -34.8721 48446.6233 -1.4913 -1.2305
ENERGY: 100000 0.5926 2.7815 1.8320 0.0000 -23222.9111 3968.0005 0.0000 0.0000 1187.8902 -18061.8143 119.9746 -19249.7045 -18057.3193 120.4527 546.5118 589.6134 47978.3137 2.2047 2.3510
TCL: Running 25000 steps at 150 kelvin.
TCL: Setting parameter langevinTemp to 150
TCL: Running for 25000 steps
ETITLE: TS BOND ANGLE DIHED IMPRP ELECT VDW BOUNDARY MISC KINETIC TOTAL TEMP POTENTIAL TOTAL3 TEMPAVG PRESSURE GPRESSURE VOLUME PRESSAVG GPRESSAVG
ENERGY: 100000 0.5926 2.7815 1.8320 0.0000 -23222.9111 3968.0005 0.0000 0.0000 1187.2993 -18062.4052 119.9149 -19249.7045 -18060.3219 119.9149 542.0491 590.7426 47978.3137 542.0491 590.7426
ENERGY: 105000 0.6997 3.1383 1.3283 0.0000 -22716.8771 3814.7225 0.0000 0.0000 1480.5849 -17416.4034 149.5362 -18896.9884 -17412.2879 147.0193 337.3680 433.0374 48442.3411 -1.8919 -2.1766
ENERGY: 110000 1.4986 2.8356 2.2130 0.0000 -22400.0237 3536.7956 0.0000 0.0000 1463.8478 -17392.8331 147.8458 -18856.6809 -17388.5643 149.8005 -880.1613 -854.0912 48692.1974 7.9926 8.2284
ENERGY: 115000 1.6858 2.1031 2.7355 0.0000 -22615.4977 3716.6395 0.0000 0.0000 1477.7571 -17414.5766 149.2506 -18892.3337 -17412.6254 148.7992 58.5027 141.1340 48120.7483 7.9744 8.0920
ENERGY: 120000 1.6184 2.1352 2.3190 0.0000 -22719.4044 3764.9474 0.0000 0.0000 1466.5843 -17481.8001 148.1222 -18948.3844 -17477.1908 150.7408 96.1461 180.8589 48318.7062 5.5281 5.3453
ENERGY: 125000 3.3966 2.7620 1.4995 0.0000 -22558.5468 3618.9328 0.0000 0.0000 1470.7773 -17461.1786 148.5457 -18931.9559 -17456.8302 149.5049 -779.3066 -710.9377 48756.7335 5.6606 5.6426
TCL: Running 50000 steps at 180 kelvin.
TCL: Setting parameter langevinTemp to 180
TCL: Running for 50000 steps
ETITLE: TS BOND ANGLE DIHED IMPRP ELECT VDW BOUNDARY MISC KINETIC TOTAL TEMP POTENTIAL TOTAL3 TEMPAVG PRESSURE GPRESSURE VOLUME PRESSAVG GPRESSAVG
ENERGY: 125000 3.3966 2.7620 1.4995 0.0000 -22558.5468 3618.9328 0.0000 0.0000 1470.0319 -17461.9240 148.4704 -18931.9559 -17459.0623 148.4704 -777.7629 -709.7855 48756.7335 -777.7629 -709.7855
ENERGY: 135000 1.3654 1.7736 2.1757 0.0000 -22023.6674 3558.5729 0.0000 0.0000 1786.5653 -16673.2145 180.4396 -18459.7798 -16669.8378 179.2441 -93.4761 -12.4644 49058.2435 1.4044 1.6944
ENERGY: 145000 1.0857 4.8980 2.0365 0.0000 -21999.0717 3491.5968 0.0000 0.0000 1805.9005 -16693.5543 182.3925 -18499.4548 -16689.5817 179.0567 -421.2188 -372.2941 49087.9138 3.3681 3.6445
ENERGY: 155000 1.7095 4.6488 1.5007 0.0000 -22205.4727 3604.1360 0.0000 0.0000 1769.2774 -16824.2002 178.6936 -18593.4776 -16818.0805 179.1679 -111.3043 -43.9860 48963.7692 2.6872 2.3357
ENERGY: 165000 1.4483 3.1937 1.6542 0.0000 -22168.6638 3567.8837 0.0000 0.0000 1762.6007 -16831.8831 178.0193 -18594.4839 -16828.7147 180.1312 -197.7445 -128.9128 48861.8182 -0.8702 -1.3204
ENERGY: 175000 1.7950 3.9642 1.3729 0.0000 -22250.2860 3762.9957 0.0000 0.0000 1786.6503 -16693.5079 180.4482 -18480.1582 -16691.4165 180.0585 947.7656 1044.3774 48710.0062 2.6699 2.8381
TCL: Running 50000 steps at 210 kelvin.
TCL: Setting parameter langevinTemp to 210
TCL: Running for 50000 steps
ETITLE: TS BOND ANGLE DIHED IMPRP ELECT VDW BOUNDARY MISC KINETIC TOTAL TEMP POTENTIAL TOTAL3 TEMPAVG PRESSURE GPRESSURE VOLUME PRESSAVG GPRESSAVG
ENERGY: 175000 1.7950 3.9642 1.3729 0.0000 -22250.2860 3762.9957 0.0000 0.0000 1785.7683 -16694.3899 180.3591 -18480.1582 -16691.7166 180.3591 982.8834 1043.6809 48710.0062 982.8834 1043.6809
ENERGY: 185000 2.0616 4.0014 1.3370 0.0000 -20968.2793 3156.4568 0.0000 0.0000 2073.8201 -15730.6023 209.4518 -17804.4224 -15725.6290 211.2771 -270.3372 -194.6471 48415.4225 7.2001 7.0804
ENERGY: 195000 1.0024 3.2107 0.5466 0.0000 -21108.1509 3245.0380 0.0000 0.0000 2104.8903 -15753.4627 212.5899 -17858.3531 -15747.1388 210.6765 -100.9134 -29.1924 48963.6604 -3.0002 -3.2766
ENERGY: 205000 1.4401 3.3666 1.7592 0.0000 -20981.1894 3209.8553 0.0000 0.0000 2092.4124 -15672.3559 211.3296 -17764.7683 -15666.0433 211.4183 -7.1762 64.2408 48545.5249 4.5538 4.3927
ENERGY: 215000 1.2433 4.5983 2.2558 0.0000 -21120.2860 3342.9159 0.0000 0.0000 2149.8253 -15619.4474 217.1282 -17769.2727 -15614.8687 211.2089 460.6538 493.2590 49203.8135 0.9338 0.6172
ENERGY: 225000 1.1809 4.8783 1.4107 0.0000 -20896.9369 3190.6457 0.0000 0.0000 2055.8073 -15643.0140 207.6326 -17698.8213 -15637.1972 211.0358 -157.1479 -61.2004 49062.4800 4.0413 4.0300
TCL: Running 50000 steps at 240 kelvin.
TCL: Setting parameter langevinTemp to 240
TCL: Running for 50000 steps
ETITLE: TS BOND ANGLE DIHED IMPRP ELECT VDW BOUNDARY MISC KINETIC TOTAL TEMP POTENTIAL TOTAL3 TEMPAVG PRESSURE GPRESSURE VOLUME PRESSAVG GPRESSAVG
ENERGY: 225000 1.1809 4.8783 1.4107 0.0000 -20896.9369 3190.6457 0.0000 0.0000 2054.7879 -15644.0334 207.5296 -17698.8213 -15639.9324 207.5296 -143.3527 -61.0346 49062.4800 -143.3527 -61.0346
ENERGY: 235000 3.0120 3.7376 2.1492 0.0000 -19986.2045 2880.8314 0.0000 0.0000 2351.6440 -14744.8303 237.5115 -17096.4743 -14741.0999 239.2006 -295.6986 -188.5242 48961.3871 2.0830 1.6338
ENERGY: 245000 1.5990 2.1988 3.5740 0.0000 -19788.2507 2790.5536 0.0000 0.0000 2397.0981 -14593.2271 242.1023 -16990.3252 -14586.4289 239.5833 -461.5725 -356.2660 48983.5085 5.9528 6.1540
ENERGY: 255000 1.7422 5.4752 2.5358 0.0000 -19913.2660 2859.8208 0.0000 0.0000 2402.1632 -14641.5288 242.6138 -17043.6920 -14636.4295 241.3013 -381.3710 -328.6621 49785.1448 -6.0531 -6.5021
ENERGY: 265000 0.9329 3.7305 2.5772 0.0000 -20031.3915 3007.9137 0.0000 0.0000 2349.2929 -14666.9441 237.2741 -17016.2371 -14663.5472 239.8134 617.3389 740.8516 48663.6502 2.8137 3.0943
ENERGY: 275000 2.0154 8.4541 2.2881 0.0000 -20009.2735 2978.9959 0.0000 0.0000 2369.8537 -14647.6663 239.3507 -17017.5200 -14644.2085 239.0612 336.0419 407.9284 49290.4958 5.8431 6.3097
TCL: Running 50000 steps at 270 kelvin.
TCL: Setting parameter langevinTemp to 270
TCL: Running for 50000 steps
ETITLE: TS BOND ANGLE DIHED IMPRP ELECT VDW BOUNDARY MISC KINETIC TOTAL TEMP POTENTIAL TOTAL3 TEMPAVG PRESSURE GPRESSURE VOLUME PRESSAVG GPRESSAVG
ENERGY: 275000 2.0154 8.4541 2.2881 0.0000 -20009.2735 2978.9959 0.0000 0.0000 2368.6345 -14648.8855 239.2275 -17017.5200 -14644.7827 239.2275 320.7481 406.6268 49290.4958 320.7481 406.6268
ENERGY: 285000 1.5339 7.1866 6.6351 0.0000 -18936.6895 2639.3070 0.0000 0.0000 2712.0206 -13570.0064 273.9088 -16282.0269 -13563.1553 270.7937 -82.6858 -6.6561 50145.5761 -1.4371 -1.5736
ENERGY: 295000 1.1576 2.6505 3.5266 0.0000 -18969.9042 2705.6830 0.0000 0.0000 2699.4639 -13557.4226 272.6407 -16256.8866 -13549.8994 269.9968 259.4890 355.6539 49966.8601 1.4191 0.5931
ENERGY: 305000 1.9327 7.0289 3.8647 0.0000 -19223.0286 2790.4347 0.0000 0.0000 2677.6580 -13742.1098 270.4383 -16419.7678 -13736.0764 268.7873 574.7131 700.2025 49436.5222 6.2496 5.5859
ENERGY: 315000 3.0382 3.5492 2.7089 0.0000 -18813.7613 2586.4144 0.0000 0.0000 2688.0805 -13529.9701 271.4909 -16218.0506 -13526.6264 271.0362 -133.3619 -88.3309 50002.2430 3.4368 3.1095
ENERGY: 325000 1.2120 5.5485 3.9024 0.0000 -18964.9080 2671.5979 0.0000 0.0000 2689.7486 -13592.8986 271.6594 -16282.6472 -13586.7558 271.5879 72.9804 132.3713 50333.0103 2.5848 2.8834
TCL: Running 1000000 steps at 300 kelvin.
TCL: Setting parameter langevinTemp to 300
TCL: Running for 1000000 steps
ETITLE: TS BOND ANGLE DIHED IMPRP ELECT VDW BOUNDARY MISC KINETIC TOTAL TEMP POTENTIAL TOTAL3 TEMPAVG PRESSURE GPRESSURE VOLUME PRESSAVG GPRESSAVG
ENERGY: 325000 1.2120 5.5485 3.9024 0.0000 -18964.9080 2671.5979 0.0000 0.0000 2688.3890 -13594.2581 271.5221 -16282.6472 -13590.9949 271.5221 62.3328 134.1072 50333.0103 62.3328 134.1072
ENERGY: 525000 3.4788 2.3074 2.7977 0.0000 -18046.5113 2396.7892 0.0000 0.0000 2964.5851 -12676.5532 299.4174 -15641.1382 -12671.5733 301.7630 -214.3923 -120.7685 51666.6616 1.8127 1.5174
ENERGY: 725000 1.7036 6.9034 2.7234 0.0000 -17981.5474 2399.7415 0.0000 0.0000 2940.0972 -12630.3784 296.9442 -15570.4756 -12623.0606 299.5873 -308.6688 -218.6810 51940.3290 1.5396 1.7700
ENERGY: 925000 2.1171 4.9198 2.0268 0.0000 -18214.6052 2548.1751 0.0000 0.0000 2986.0002 -12671.3663 301.5803 -15657.3664 -12665.4835 298.6705 450.4271 501.4535 51536.2917 4.1344 4.1293
ENERGY: 1125000 3.6467 5.1402 4.9069 0.0000 -18266.2845 2541.6119 0.0000 0.0000 3026.8563 -12684.1224 305.7067 -15710.9787 -12677.6680 299.3850 645.5545 728.3445 50699.4308 3.8979 3.9566
ENERGY: 1325000 5.2469 6.0497 2.5391 0.0000 -17946.2823 2345.3482 0.0000 0.0000 2922.7581 -12664.3403 295.1929 -15587.0984 -12660.8561 298.8908 -322.4211 -191.5214 51088.7376 -0.1009 0.0034
TCL: Exiting due to exit command.
