Info: SIMULATION PARAMETERS:
Info: TIMESTEP               2
Info: NUMBER OF STEPS        0
Info: STEPS PER CYCLE        10
Info: PERIODIC CELL BASIS 1  39.456 0 0
Info: PERIODIC CELL BASIS 2  0 40.42 0
Info: PERIODIC CELL BASIS 3  0 0 44.171
Info: PERIODIC CELL CENTER   0 0 0
Info: WRAPPING WATERS AROUND PERIODIC BOUNDARIES ON OUTPUT.
Info: WRAPPING ALL CLUSTERS AROUND PERIODIC BOUNDARIES ON OUTPUT.
Info: FIRST LDB TIMESTEP     50
Info: LAST LDB TIMESTEP     -1
Info: HOM BACKGROUND SCALING 1
Info: PME BACKGROUND SCALING 1
Info: MIN ATOMS PER PATCH    40
Info: EMPTY PATCH LOAD       40 ATOMS
Info: INITIAL TEMPERATURE    300
Info: CENTER OF MASS MOVING INITIALLY? NO
Info: DIELECTRIC             1
Info: EXCLUDE                SCALED ONE-FOUR
Info: 1-4 ELECTROSTATICS SCALED BY 0.833333
Info: MODIFIED 1-4 VDW PARAMETERS WILL BE USED
Info: DCD FILENAME           mobley_1827204_min.dcd
Info: DCD FREQUENCY          5000
Info: DCD FIRST STEP         5000
Info: DCD FILE WILL CONTAIN UNIT CELL DATA
Info: XST FILENAME           mobley_1827204_min.xst
Info: XST FREQUENCY          5000
Info: NO VELOCITY DCD OUTPUT
Info: NO FORCE DCD OUTPUT
Info: OUTPUT FILENAME        mobley_1827204_min
Info: BINARY OUTPUT FILES WILL BE USED
Info: RESTART FILENAME       mobley_1827204_min.restart
Info: RESTART FREQUENCY      5000
Info: BINARY RESTART FILES WILL BE USED
Info: CUTOFF                 9
Info: PAIRLIST DISTANCE      11
Info: PAIRLIST SHRINK RATE   0.01
Info: PAIRLIST GROW RATE     0.01
Info: PAIRLIST TRIGGER       0.3
Info: PAIRLISTS PER CYCLE    2
Info: PAIRLISTS ENABLED
Info: MARGIN                 8
Info: HYDROGEN GROUP CUTOFF  2.5
Info: PATCH DIMENSION        21.5
Info: ENERGY OUTPUT STEPS    5000
Info: ENERGY EVALUATION STEPS    5000
Info: OUTPUT ENERGY PRECISION 4
Info: CROSSTERM ENERGY INCLUDED IN DIHEDRAL
Info: TIMING OUTPUT STEPS    50000
Info: PRESSURE OUTPUT STEPS  5000
Info: LANGEVIN DYNAMICS ACTIVE
Info: LANGEVIN TEMPERATURE   300
Info: LANGEVIN USING BBK INTEGRATOR
Info: LANGEVIN DAMPING COEFFICIENT IS 1 INVERSE PS
Info: LANGEVIN DYNAMICS APPLIED TO HYDROGENS
Info: LANGEVIN PISTON PRESSURE CONTROL ACTIVE
Info:        TARGET PRESSURE IS 1.01325 BAR
Info:     OSCILLATION PERIOD IS 50 FS
Info:             DECAY TIME IS 25 FS
Info:     PISTON TEMPERATURE IS 300 K
Info:       PRESSURE CONTROL IS GROUP-BASED
Info:    INITIAL STRAIN RATE IS 0 0 0
Info:       CELL FLUCTUATION IS ISOTROPIC
Info: PARTICLE MESH EWALD (PME) ACTIVE
Info: PME TOLERANCE               1e-06
Info: PME EWALD COEFFICIENT       0.348832
Info: PME INTERPOLATION ORDER     4
Info: PME GRID DIMENSIONS         40 44 48
Info: PME MAXIMUM GRID SPACING    1
Info: FULL ELECTROSTATIC EVALUATION FREQUENCY      2
Info: USING VERLET I (r-RESPA) MTS SCHEME.
Info: C1 SPLITTING OF LONG RANGE ELECTROSTATICS
Info: PLACING ATOMS IN PATCHES BY HYDROGEN GROUPS
Info: RIGID BONDS TO HYDROGEN : ALL
Info:         ERROR TOLERANCE : 1e-08
Info:          MAX ITERATIONS : 100
Info: RIGID WATER USING SETTLE ALGORITHM
Info: RANDOM NUMBER SEED     1741313371
Info: USE HYDROGEN BONDS?    NO
Info: Using AMBER format force field!
Info: AMBER PARM FILE        mobley_1827204.prmtop
Info: COORDINATE PDB         mobley_1827204.pdb
Info: Exclusions will be read from PARM file!
Info: SCNB (VDW SCALING)     2
Info: USING ARITHMETIC MEAN TO COMBINE L-J SIGMA PARAMETERS
Info: SUMMARY OF PARAMETERS:
Info: 7 BONDS
Info: 8 ANGLES
Info:   8 HARMONIC
Info:   0 COSINE-BASED
Info: 14 DIHEDRAL
Info: 0 IMPROPER
Info: 0 CROSSTERM
Info: 0 VDW
Info: 28 VDW_PAIRS
Info: 0 NBTHOLE_PAIRS
Info: STRUCTURE SUMMARY:
Info: 5047 ATOMS
Info: 5046 BONDS
Info: 33 ANGLES
Info: 49 DIHEDRALS
Info: 0 IMPROPERS
Info: 0 CROSSTERMS
Info: 5121 EXCLUSIONS
Info: 5040 RIGID BONDS
Info: 10101 DEGREES OF FREEDOM
Info: 1683 HYDROGEN GROUPS
Info: 4 ATOMS IN LARGEST HYDROGEN GROUP
Info: 1683 MIGRATION GROUPS
Info: 4 ATOMS IN LARGEST MIGRATION GROUP
Info: TOTAL MASS = 30295 amu
Info: TOTAL CHARGE = 6.51926e-09 e
Info: MASS DENSITY = 0.71414 g/cm^3
Info: ATOM DENSITY = 0.0716451 atoms/A^3
Info: ADDED 0 IMPLICIT EXCLUSIONS
Info: NONBONDED TABLE R-SQUARED SPACING: 0.0625
Info: NONBONDED TABLE SIZE: 705 POINTS
Info: REMOVING COM VELOCITY 0.0711521 0.09828 0.0445899
TCL: Minimizing for 2000 steps
ETITLE: TS BOND ANGLE DIHED IMPRP ELECT VDW BOUNDARY MISC KINETIC TOTAL TEMP POTENTIAL TOTAL3 TEMPAVG PRESSURE GPRESSURE VOLUME PRESSAVG GPRESSAVG
ENERGY: 0 0.1736 0.5089 16.6455 0.0000 -15684.5938 1746.5001 0.0000 0.0000 0.0000 -13920.7656 0.0000 -13920.7656 -13920.7656 0.0000 10921.3662 -15413.6575 70444.4196 10921.3662 -15413.6575
ENERGY: 400 2.5444 2.8881 14.5033 0.0000 -20784.0420 2877.5833 0.0000 0.0000 0.0000 -17886.5230 0.0000 -17886.5230 -17886.5230 0.0000 14827.2332 9212.8819 70444.4196 14827.2332 9212.8819
ENERGY: 800 1.0644 0.7237 13.9124 0.0000 -22164.2544 3553.9380 0.0000 0.0000 0.0000 -18594.6159 0.0000 -18594.6159 -18594.6159 0.0000 17816.9703 11842.6536 70444.4196 17816.9703 11842.6536
ENERGY: 1200 28.7335 12.6802 14.4089 0.0000 -22676.4245 3793.2880 0.0000 0.0000 0.0000 -18827.3139 0.0000 -18827.3139 -18827.3139 0.0000 18817.4168 12642.6733 70444.4196 18817.4168 12642.6733
ENERGY: 1600 0.2968 0.3329 14.1970 0.0000 -22966.3360 3927.0098 0.0000 0.0000 0.0000 -19024.4996 0.0000 -19024.4996 -19024.4996 0.0000 19585.5547 13298.3640 70444.4196 19585.5547 13298.3640
ENERGY: 2000 0.2815 0.6732 13.8179 0.0000 -23160.5561 4017.2916 0.0000 0.0000 0.0000 -19128.4919 0.0000 -19128.4919 -19128.4919 0.0000 20026.8848 13612.8938 70444.4196 20026.8848 13612.8938
TCL: Exiting due to exit command.
Info: NAMD 3.0.1 for Linux-x86_64-multicore
Info: Please visit http://www.ks.uiuc.edu/Research/namd/
Info: for updates, documentation, and support information.
Info: Please cite Phillips et al., J. Chem. Phys. 153:044130 (2020) doi:10.1063/5.0014475
Info: in all publications reporting results obtained with NAMD.
Info: Based on Charm++/Converse 80000 for multicore-linux-x86_64-gcc
Info: Built Mon Oct 14 11:11:06 CDT 2024 by dhardy on athine.ks.uiuc.edu
Info: 1 NAMD  3.0.1  Linux-x86_64-multicore  16    k016  z5358697
Info: Running on 16 processors, 1 nodes, 1 physical nodes.
Info: CPU topology information available.
Info: Charm++/Converse parallel runtime startup completed at 0.0091182 s
Info: 1043.45 MB of memory in use based on /proc/self/stat
Info: Configuration file is mobley_1827204_equil.namd
Info: Working in the current directory /srv/scratch/z5358697/prod_prep_1/1827204
TCL: Running 25000 steps at 30 kelvin.
TCL: Suspending until startup complete.
Info: SIMULATION PARAMETERS:
Info: TIMESTEP               2
Info: NUMBER OF STEPS        0
Info: STEPS PER CYCLE        10
Info: PERIODIC CELL BASIS 1  39.456 0 0
Info: PERIODIC CELL BASIS 2  0 40.42 0
Info: PERIODIC CELL BASIS 3  0 0 44.171
Info: PERIODIC CELL CENTER   0 0 0
Info: WRAPPING WATERS AROUND PERIODIC BOUNDARIES ON OUTPUT.
Info: WRAPPING ALL CLUSTERS AROUND PERIODIC BOUNDARIES ON OUTPUT.
Info: FIRST LDB TIMESTEP     50
Info: LAST LDB TIMESTEP     -1
Info: HOM BACKGROUND SCALING 1
Info: PME BACKGROUND SCALING 1
Info: MIN ATOMS PER PATCH    40
Info: EMPTY PATCH LOAD       40 ATOMS
Info: INITIAL TEMPERATURE    300
Info: CENTER OF MASS MOVING INITIALLY? NO
Info: DIELECTRIC             1
Info: EXCLUDE                SCALED ONE-FOUR
Info: 1-4 ELECTROSTATICS SCALED BY 0.833333
Info: MODIFIED 1-4 VDW PARAMETERS WILL BE USED
Info: DCD FILENAME           mobley_1827204_equil.dcd
Info: DCD FREQUENCY          5000
Info: DCD FIRST STEP         5000
Info: DCD FILE WILL CONTAIN UNIT CELL DATA
Info: XST FILENAME           mobley_1827204_equil.xst
Info: XST FREQUENCY          5000
Info: NO VELOCITY DCD OUTPUT
Info: NO FORCE DCD OUTPUT
Info: OUTPUT FILENAME        mobley_1827204_equil
Info: BINARY OUTPUT FILES WILL BE USED
Info: RESTART FILENAME       mobley_1827204_equil.restart
Info: RESTART FREQUENCY      5000
Info: BINARY RESTART FILES WILL BE USED
Info: CUTOFF                 9
Info: PAIRLIST DISTANCE      11
Info: PAIRLIST SHRINK RATE   0.01
Info: PAIRLIST GROW RATE     0.01
Info: PAIRLIST TRIGGER       0.3
Info: PAIRLISTS PER CYCLE    2
Info: PAIRLISTS ENABLED
Info: MARGIN                 8
Info: HYDROGEN GROUP CUTOFF  2.5
Info: PATCH DIMENSION        21.5
Info: ENERGY OUTPUT STEPS    5000
Info: ENERGY EVALUATION STEPS    5000
Info: OUTPUT ENERGY PRECISION 4
Info: CROSSTERM ENERGY INCLUDED IN DIHEDRAL
Info: TIMING OUTPUT STEPS    50000
Info: PRESSURE OUTPUT STEPS  5000
Info: LANGEVIN DYNAMICS ACTIVE
Info: LANGEVIN TEMPERATURE   30
Info: LANGEVIN USING BBK INTEGRATOR
Info: LANGEVIN DAMPING COEFFICIENT IS 1 INVERSE PS
Info: LANGEVIN DYNAMICS APPLIED TO HYDROGENS
Info: LANGEVIN PISTON PRESSURE CONTROL ACTIVE
Info:        TARGET PRESSURE IS 1.01325 BAR
Info:     OSCILLATION PERIOD IS 50 FS
Info:             DECAY TIME IS 25 FS
Info:     PISTON TEMPERATURE IS 300 K
Info:       PRESSURE CONTROL IS GROUP-BASED
Info:    INITIAL STRAIN RATE IS 0 0 0
Info:       CELL FLUCTUATION IS ISOTROPIC
Info: PARTICLE MESH EWALD (PME) ACTIVE
Info: PME TOLERANCE               1e-06
Info: PME EWALD COEFFICIENT       0.348832
Info: PME INTERPOLATION ORDER     4
Info: PME GRID DIMENSIONS         40 44 48
Info: PME MAXIMUM GRID SPACING    1
Info: FULL ELECTROSTATIC EVALUATION FREQUENCY      2
Info: USING VERLET I (r-RESPA) MTS SCHEME.
Info: C1 SPLITTING OF LONG RANGE ELECTROSTATICS
Info: PLACING ATOMS IN PATCHES BY HYDROGEN GROUPS
Info: RIGID BONDS TO HYDROGEN : ALL
Info:         ERROR TOLERANCE : 1e-08
Info:          MAX ITERATIONS : 100
Info: RIGID WATER USING SETTLE ALGORITHM
Info: RANDOM NUMBER SEED     1741313393
Info: USE HYDROGEN BONDS?    NO
Info: Using AMBER format force field!
Info: AMBER PARM FILE        mobley_1827204.prmtop
Info: COORDINATE PDB         mobley_1827204.pdb
Info: Exclusions will be read from PARM file!
Info: SCNB (VDW SCALING)     2
Info: USING ARITHMETIC MEAN TO COMBINE L-J SIGMA PARAMETERS
Info: BINARY COORDINATES     mobley_1827204_min.coor
Info: SUMMARY OF PARAMETERS:
Info: 7 BONDS
Info: 8 ANGLES
Info:   8 HARMONIC
Info:   0 COSINE-BASED
Info: 14 DIHEDRAL
Info: 0 IMPROPER
Info: 0 CROSSTERM
Info: 0 VDW
Info: 28 VDW_PAIRS
Info: 0 NBTHOLE_PAIRS
Info: STRUCTURE SUMMARY:
Info: 5047 ATOMS
Info: 5046 BONDS
Info: 33 ANGLES
Info: 49 DIHEDRALS
Info: 0 IMPROPERS
Info: 0 CROSSTERMS
Info: 5121 EXCLUSIONS
Info: 5040 RIGID BONDS
Info: 10101 DEGREES OF FREEDOM
Info: 1683 HYDROGEN GROUPS
Info: 4 ATOMS IN LARGEST HYDROGEN GROUP
Info: 1683 MIGRATION GROUPS
Info: 4 ATOMS IN LARGEST MIGRATION GROUP
Info: TOTAL MASS = 30295 amu
Info: TOTAL CHARGE = 6.51926e-09 e
Info: MASS DENSITY = 0.71414 g/cm^3
Info: ATOM DENSITY = 0.0716451 atoms/A^3
Info: ADDED 0 IMPLICIT EXCLUSIONS
Info: NONBONDED TABLE R-SQUARED SPACING: 0.0625
Info: NONBONDED TABLE SIZE: 705 POINTS
Info: REMOVING COM VELOCITY 0.068706 -0.0550175 -0.0424367
TCL: Running for 25000 steps
ETITLE: TS BOND ANGLE DIHED IMPRP ELECT VDW BOUNDARY MISC KINETIC TOTAL TEMP POTENTIAL TOTAL3 TEMPAVG PRESSURE GPRESSURE VOLUME PRESSAVG GPRESSAVG
ENERGY: 0 0.2815 0.6732 13.8179 0.0000 -23160.5561 4017.2916 0.0000 0.0000 3005.2051 -16123.2869 299.4333 -19128.4919 -16122.6561 299.4333 353.8806 394.7822 70444.4196 353.8806 394.7822
ENERGY: 5000 0.8267 1.0154 13.9644 0.0000 -24055.3088 4047.2491 0.0000 0.0000 308.7686 -19683.4847 30.7652 -19992.2534 -19682.7516 47.6483 -805.7511 -739.7824 49735.8365 1.1939 1.3919
ENERGY: 10000 0.5723 0.7443 14.5128 0.0000 -24211.1932 4147.9943 0.0000 0.0000 307.2648 -19740.1047 30.6153 -20047.3695 -19739.4318 30.3840 -399.8251 -349.7860 49555.3599 5.8124 5.5232
ENERGY: 15000 0.2095 1.3234 13.9923 0.0000 -24294.5840 4212.7664 0.0000 0.0000 298.0986 -19768.1938 29.7020 -20066.2924 -19766.9455 30.4458 -99.9362 -51.7861 49429.0858 5.0763 5.1976
ENERGY: 20000 0.3715 1.1994 14.2679 0.0000 -24381.0450 4294.0687 0.0000 0.0000 300.6806 -19770.4569 29.9593 -20071.1375 -19769.7320 30.1307 293.7574 350.5266 49343.9542 4.9455 5.0646
ENERGY: 25000 0.2072 0.6983 14.3639 0.0000 -24558.7802 4472.2768 0.0000 0.0000 297.8293 -19773.4047 29.6752 -20071.2339 -19772.7642 30.0609 1244.6041 1280.4999 48997.6043 2.4665 2.4302
TCL: Running 25000 steps at 60 kelvin.
TCL: Setting parameter langevinTemp to 60
TCL: Running for 25000 steps
ETITLE: TS BOND ANGLE DIHED IMPRP ELECT VDW BOUNDARY MISC KINETIC TOTAL TEMP POTENTIAL TOTAL3 TEMPAVG PRESSURE GPRESSURE VOLUME PRESSAVG GPRESSAVG
ENERGY: 25000 0.2072 0.6983 14.3639 0.0000 -24558.7802 4472.2768 0.0000 0.0000 297.6817 -19773.5522 29.6605 -20071.2339 -19772.9979 29.6605 1224.0617 1280.6197 48997.6043 1224.0617 1280.6197
ENERGY: 30000 0.2166 1.0668 14.9004 0.0000 -23748.2653 3945.3782 0.0000 0.0000 607.1592 -19179.5442 60.4963 -19786.7034 -19178.2929 56.8793 -723.0175 -686.6963 49863.8855 -1.7221 -1.3642
ENERGY: 35000 0.1785 1.5937 14.0669 0.0000 -23933.7124 4087.0584 0.0000 0.0000 599.2697 -19231.5451 59.7102 -19830.8148 -19230.0143 60.1339 -48.4158 -8.9320 49298.6444 -0.6807 -0.5616
ENERGY: 40000 0.7538 2.2658 14.2883 0.0000 -23934.5098 4065.4943 0.0000 0.0000 604.2203 -19247.4873 60.2034 -19851.7076 -19245.3688 60.3195 -190.6039 -129.6981 49175.3668 2.8550 3.1335
ENERGY: 45000 0.7942 1.8720 14.3470 0.0000 -23806.1761 3903.9639 0.0000 0.0000 606.7440 -19278.4550 60.4549 -19885.1990 -19277.0344 60.0359 -1054.5602 -1004.8364 49327.0280 3.4987 3.5345
ENERGY: 50000 0.7248 2.7798 13.6206 0.0000 -24035.5741 4126.7693 0.0000 0.0000 606.8848 -19284.7948 60.4689 -19891.6796 -19283.1357 60.6163 4.0827 52.8400 49147.0262 2.2725 2.2717
TCL: Running 25000 steps at 90 kelvin.
TCL: Setting parameter langevinTemp to 90
TCL: Running for 25000 steps
ETITLE: TS BOND ANGLE DIHED IMPRP ELECT VDW BOUNDARY MISC KINETIC TOTAL TEMP POTENTIAL TOTAL3 TEMPAVG PRESSURE GPRESSURE VOLUME PRESSAVG GPRESSAVG
ENERGY: 50000 0.7248 2.7798 13.6206 0.0000 -24035.5741 4126.7693 0.0000 0.0000 606.5869 -19285.0927 60.4392 -19891.6796 -19283.9092 60.4392 1.5959 52.7825 49147.0262 1.5959 52.7825
ENERGY: 55000 0.3258 2.4941 13.9971 0.0000 -23749.6488 4159.1882 0.0000 0.0000 917.1708 -18656.4728 91.3853 -19573.6437 -18654.0597 86.8434 846.3324 923.4333 49306.8164 1.8336 2.2000
ENERGY: 60000 0.7063 2.1894 13.7362 0.0000 -23477.9360 3860.4046 0.0000 0.0000 902.4204 -18698.4791 89.9156 -19600.8995 -18696.0432 90.3419 -738.4557 -656.3719 49658.5338 3.8373 3.8404
ENERGY: 65000 1.3027 2.2029 14.9804 0.0000 -23673.7194 4013.7575 0.0000 0.0000 901.3405 -18740.1355 89.8080 -19641.4759 -18737.5082 90.2488 56.2440 113.3017 49317.8384 1.3989 1.2924
ENERGY: 70000 0.4824 2.9362 14.2212 0.0000 -23569.3498 3888.6077 0.0000 0.0000 904.3780 -18758.7244 90.1106 -19663.1024 -18756.4133 90.0223 -727.2378 -666.3381 49540.8385 2.5708 2.6817
ENERGY: 75000 0.6869 1.8015 15.1917 0.0000 -23768.0146 4072.6640 0.0000 0.0000 892.2350 -18785.4356 88.9007 -19677.6706 -18782.9454 89.9588 202.5600 264.1583 49081.6211 6.5406 6.6268
TCL: Running 25000 steps at 120 kelvin.
TCL: Setting parameter langevinTemp to 120
TCL: Running for 25000 steps
ETITLE: TS BOND ANGLE DIHED IMPRP ELECT VDW BOUNDARY MISC KINETIC TOTAL TEMP POTENTIAL TOTAL3 TEMPAVG PRESSURE GPRESSURE VOLUME PRESSAVG GPRESSAVG
ENERGY: 75000 0.6869 1.8015 15.1917 0.0000 -23768.0146 4072.6640 0.0000 0.0000 891.7952 -18785.8754 88.8569 -19677.6706 -18783.9824 88.8569 213.0953 264.1637 49081.6211 213.0953 264.1637
ENERGY: 80000 1.6072 3.9542 14.9736 0.0000 -23388.9518 3986.8766 0.0000 0.0000 1229.1717 -18152.3686 122.4725 -19381.5403 -18149.0595 117.1986 436.4721 496.7538 49132.4340 5.7453 5.1942
ENERGY: 85000 1.1996 3.9048 14.8179 0.0000 -23269.6656 3868.0193 0.0000 0.0000 1184.9302 -18196.7939 118.0643 -19381.7241 -18193.4941 119.7729 -142.2144 -92.5766 49241.1651 5.1881 5.1188
ENERGY: 90000 1.1122 3.4271 15.2215 0.0000 -23260.4797 3792.7263 0.0000 0.0000 1194.4821 -18253.5104 119.0161 -19447.9926 -18248.7703 120.3323 -635.4281 -596.7609 49251.7233 -0.4764 -0.8537
ENERGY: 95000 1.2133 3.0583 14.8395 0.0000 -23469.4670 3988.5312 0.0000 0.0000 1193.8546 -18267.9701 118.9536 -19461.8246 -18265.4477 119.5157 359.0922 431.3031 48872.9658 5.1110 5.2742
ENERGY: 100000 1.1993 3.6215 16.0456 0.0000 -23402.6727 3881.9047 0.0000 0.0000 1199.9199 -18299.9817 119.5579 -19499.9016 -18298.7593 119.8746 -331.5324 -307.8857 49262.0278 3.7236 3.8107
TCL: Running 25000 steps at 150 kelvin.
TCL: Setting parameter langevinTemp to 150
TCL: Running for 25000 steps
ETITLE: TS BOND ANGLE DIHED IMPRP ELECT VDW BOUNDARY MISC KINETIC TOTAL TEMP POTENTIAL TOTAL3 TEMPAVG PRESSURE GPRESSURE VOLUME PRESSAVG GPRESSAVG
ENERGY: 100000 1.1993 3.6215 16.0456 0.0000 -23402.6727 3881.9047 0.0000 0.0000 1199.2881 -18300.6135 119.4949 -19499.9016 -18298.3857 119.4949 -369.1854 -309.1505 49262.0278 -369.1854 -309.1505
ENERGY: 105000 0.6335 5.7446 14.8780 0.0000 -22967.8690 3809.3396 0.0000 0.0000 1505.7644 -17631.5089 150.0317 -19137.2733 -17627.6198 147.6002 190.8344 197.2858 49483.4222 2.0809 2.0267
ENERGY: 110000 0.5270 4.5030 14.6386 0.0000 -22951.1096 3839.4154 0.0000 0.0000 1486.8182 -17605.2073 148.1439 -19092.0255 -17602.1366 150.8467 368.4446 441.3339 49125.9937 4.5100 3.9136
ENERGY: 115000 1.7850 4.5015 13.5861 0.0000 -22778.1029 3673.6789 0.0000 0.0000 1525.4794 -17559.0721 151.9961 -19084.5515 -17555.6704 150.0312 -508.7313 -478.0637 49488.7420 8.8768 9.3998
ENERGY: 120000 1.5360 4.4079 14.7401 0.0000 -23050.1748 3855.6085 0.0000 0.0000 1490.3574 -17683.5249 148.4966 -19173.8823 -17681.3143 149.3278 170.7966 224.5867 49309.0613 3.8148 3.6351
ENERGY: 125000 0.5808 3.9902 14.2789 0.0000 -23084.9669 3850.0617 0.0000 0.0000 1488.5935 -17727.4617 148.3208 -19216.0552 -17723.1493 149.8771 54.2098 93.9632 49472.7923 0.8000 0.8047
TCL: Running 50000 steps at 180 kelvin.
TCL: Setting parameter langevinTemp to 180
TCL: Running for 50000 steps
ETITLE: TS BOND ANGLE DIHED IMPRP ELECT VDW BOUNDARY MISC KINETIC TOTAL TEMP POTENTIAL TOTAL3 TEMPAVG PRESSURE GPRESSURE VOLUME PRESSAVG GPRESSAVG
ENERGY: 125000 0.5808 3.9902 14.2789 0.0000 -23084.9669 3850.0617 0.0000 0.0000 1487.8504 -17728.2048 148.2468 -19216.0552 -17725.3175 148.2468 46.9511 94.8213 49472.7923 46.9511 94.8213
ENERGY: 135000 1.7260 3.2863 16.9618 0.0000 -22217.2191 3506.9068 0.0000 0.0000 1832.7744 -16855.5638 182.6144 -18688.3383 -16851.0192 180.1607 -412.1072 -369.2316 49712.1894 0.8782 1.3627
ENERGY: 145000 1.0095 6.0308 14.5830 0.0000 -22520.7925 3722.0921 0.0000 0.0000 1799.2475 -16977.8296 179.2738 -18777.0770 -16972.3673 180.2173 434.8349 476.5595 49446.1647 3.8923 3.4384
ENERGY: 155000 2.1535 3.5086 16.0884 0.0000 -22260.0112 3498.2900 0.0000 0.0000 1790.8230 -16949.1477 178.4344 -18739.9707 -16944.6157 180.1200 -597.7707 -560.4780 49753.0801 3.0971 3.5569
ENERGY: 165000 2.3945 4.0764 15.4424 0.0000 -22251.1284 3532.2590 0.0000 0.0000 1827.1113 -16869.8449 182.0501 -18696.9561 -16864.7499 181.5929 -391.4796 -380.9919 49627.3822 0.9912 1.1642
ENERGY: 175000 0.9129 4.4309 15.0395 0.0000 -22410.3543 3598.6424 0.0000 0.0000 1797.7407 -16993.5879 179.1237 -18791.3286 -16989.4649 181.2981 -338.1199 -259.5275 49786.2685 6.8998 7.3751
TCL: Running 50000 steps at 210 kelvin.
TCL: Setting parameter langevinTemp to 210
TCL: Running for 50000 steps
ETITLE: TS BOND ANGLE DIHED IMPRP ELECT VDW BOUNDARY MISC KINETIC TOTAL TEMP POTENTIAL TOTAL3 TEMPAVG PRESSURE GPRESSURE VOLUME PRESSAVG GPRESSAVG
ENERGY: 175000 0.9129 4.4309 15.0395 0.0000 -22410.3543 3598.6424 0.0000 0.0000 1796.8538 -16994.4748 179.0353 -18791.3286 -16990.7731 179.0353 -334.0027 -259.6100 49786.2685 -334.0027 -259.6100
ENERGY: 185000 3.7374 7.1842 13.7701 0.0000 -21422.7697 3316.7337 0.0000 0.0000 2061.8784 -16019.4660 205.4419 -18081.3443 -16014.7581 209.3155 -202.3524 -50.2468 49449.2093 1.6505 2.2044
ENERGY: 195000 0.6911 5.5387 15.7757 0.0000 -21256.6582 3236.7218 0.0000 0.0000 2112.9997 -15884.9312 210.5356 -17997.9310 -15878.3870 208.2728 -78.4521 32.3017 48998.3510 -0.4228 0.1040
ENERGY: 205000 0.6263 6.1860 14.9018 0.0000 -21214.8547 3252.0359 0.0000 0.0000 2153.3548 -15787.7500 214.5565 -17941.1047 -15781.2685 209.7167 97.7234 241.4794 48986.2060 -0.5841 -0.9077
ENERGY: 215000 1.1530 5.9271 14.3705 0.0000 -20970.8946 3075.8318 0.0000 0.0000 2062.3210 -15811.2911 205.4860 -17873.6121 -15808.3900 210.3008 -538.0147 -460.9183 49073.6916 -2.4576 -2.0358
ENERGY: 225000 0.5256 5.4377 15.5329 0.0000 -21210.4930 3234.7889 0.0000 0.0000 2138.2681 -15815.9398 213.0532 -17954.2079 -15811.1496 210.0049 37.9388 186.7016 48868.7004 4.2747 4.1774
TCL: Running 50000 steps at 240 kelvin.
TCL: Setting parameter langevinTemp to 240
TCL: Running for 50000 steps
ETITLE: TS BOND ANGLE DIHED IMPRP ELECT VDW BOUNDARY MISC KINETIC TOTAL TEMP POTENTIAL TOTAL3 TEMPAVG PRESSURE GPRESSURE VOLUME PRESSAVG GPRESSAVG
ENERGY: 225000 0.5256 5.4377 15.5329 0.0000 -21210.4930 3234.7889 0.0000 0.0000 2137.2011 -15817.0068 212.9469 -17954.2079 -15813.7220 212.9469 98.1497 186.8886 48868.7004 98.1497 186.8886
ENERGY: 235000 2.5831 6.2034 15.0187 0.0000 -20183.2938 2979.4636 0.0000 0.0000 2425.8133 -14754.2117 241.7037 -17180.0250 -14750.2864 240.0136 187.5619 284.3151 49564.6306 4.7152 4.6783
ENERGY: 245000 2.7172 9.9444 16.2311 0.0000 -19970.9844 2760.7486 0.0000 0.0000 2440.4734 -14740.8696 243.1645 -17181.3430 -14735.1386 242.0563 -804.4640 -760.0306 49892.5567 -0.2574 -0.3209
ENERGY: 255000 1.8129 4.1967 16.2471 0.0000 -20271.5481 2942.6103 0.0000 0.0000 2435.3981 -14871.2831 242.6588 -17306.6812 -14865.7801 238.9758 -222.5280 -188.2645 49971.9439 1.4942 0.6541
ENERGY: 265000 3.1141 4.7151 14.1816 0.0000 -20088.2953 2869.5460 0.0000 0.0000 2430.7573 -14765.9812 242.1964 -17196.7385 -14761.9855 241.9617 -86.8789 -49.0685 49268.8698 4.5557 5.3070
ENERGY: 275000 0.9563 4.2528 14.0741 0.0000 -20026.4214 2808.0462 0.0000 0.0000 2388.1402 -14810.9517 237.9501 -17199.0919 -14803.9924 241.8128 -705.1180 -617.8823 49918.2099 5.6287 5.7824
TCL: Running 50000 steps at 270 kelvin.
TCL: Setting parameter langevinTemp to 270
TCL: Running for 50000 steps
ETITLE: TS BOND ANGLE DIHED IMPRP ELECT VDW BOUNDARY MISC KINETIC TOTAL TEMP POTENTIAL TOTAL3 TEMPAVG PRESSURE GPRESSURE VOLUME PRESSAVG GPRESSAVG
ENERGY: 275000 0.9563 4.2528 14.0741 0.0000 -20026.4214 2808.0462 0.0000 0.0000 2386.9333 -14812.1586 237.8298 -17199.0919 -14807.7599 237.8298 -703.3489 -617.2599 49918.2099 -703.3489 -617.2599
ENERGY: 285000 1.6218 6.3573 14.9361 0.0000 -19244.4442 2679.2673 0.0000 0.0000 2704.6955 -13837.5662 269.4911 -16542.2617 -13830.7783 271.4525 -107.3781 -55.9617 50706.3903 4.9681 4.8692
ENERGY: 295000 2.3073 7.4040 15.5604 0.0000 -19118.2816 2636.6153 0.0000 0.0000 2636.0106 -13820.3840 262.6474 -16456.3946 -13812.1518 271.4085 -234.8033 -160.0981 50755.6829 1.5359 0.8839
ENERGY: 305000 2.0830 9.2219 14.2183 0.0000 -19124.4396 2678.7179 0.0000 0.0000 2738.2306 -13681.9678 272.8325 -16420.1984 -13676.9171 270.1921 96.7905 161.2395 50774.4698 -0.1674 0.5871
ENERGY: 315000 0.9879 6.5417 14.4451 0.0000 -19372.0001 2708.5911 0.0000 0.0000 2757.8144 -13883.6199 274.7837 -16641.4343 -13878.2631 268.1288 13.5374 91.3996 50288.3792 0.2593 -0.0625
ENERGY: 325000 0.4225 6.6176 16.4429 0.0000 -19234.9871 2703.4622 0.0000 0.0000 2710.5880 -13797.4538 270.0782 -16508.0419 -13791.3352 270.3988 156.0625 266.1530 50430.0591 2.0782 2.4430
TCL: Running 1000000 steps at 300 kelvin.
TCL: Setting parameter langevinTemp to 300
TCL: Running for 1000000 steps
ETITLE: TS BOND ANGLE DIHED IMPRP ELECT VDW BOUNDARY MISC KINETIC TOTAL TEMP POTENTIAL TOTAL3 TEMPAVG PRESSURE GPRESSURE VOLUME PRESSAVG GPRESSAVG
ENERGY: 325000 0.4225 6.6176 16.4429 0.0000 -19234.9871 2703.4622 0.0000 0.0000 2709.2234 -13798.8184 269.9422 -16508.0419 -13794.4238 269.9422 184.3497 265.0535 50430.0591 184.3497 265.0535
ENERGY: 525000 0.5247 9.4256 16.4227 0.0000 -18269.4084 2409.0477 0.0000 0.0000 3012.3412 -12821.6465 300.1444 -15833.9877 -12816.9537 298.8967 -171.8966 -17.5960 51357.2841 1.1345 1.0236
ENERGY: 725000 2.2293 9.1545 15.1269 0.0000 -18405.0968 2556.9983 0.0000 0.0000 3002.4880 -12819.0998 299.1626 -15821.5877 -12812.4668 299.8892 292.8454 388.7391 52295.1046 5.4409 5.4036
ENERGY: 925000 2.2112 10.4403 13.7292 0.0000 -18268.4456 2403.2824 0.0000 0.0000 3070.7097 -12768.0729 305.9601 -15838.7826 -12759.5472 301.8151 -307.8527 -276.0066 52071.0820 4.7549 4.9960
ENERGY: 1125000 3.0198 4.5324 14.0488 0.0000 -18458.7929 2479.0146 0.0000 0.0000 3023.1694 -12935.0080 301.2233 -15958.1774 -12928.4101 299.0285 -129.9420 -37.4612 51838.7135 2.8326 2.8614
ENERGY: 1325000 0.7063 6.3224 15.4597 0.0000 -18304.6156 2486.8506 0.0000 0.0000 3018.7671 -12776.5095 300.7846 -15795.2766 -12769.9040 300.3583 124.3187 188.6790 51890.0117 1.0188 0.5270
TCL: Exiting due to exit command.
