Info: SIMULATION PARAMETERS:
Info: TIMESTEP               2
Info: NUMBER OF STEPS        0
Info: STEPS PER CYCLE        10
Info: PERIODIC CELL BASIS 1  36.592 0 0
Info: PERIODIC CELL BASIS 2  0 34.26 0
Info: PERIODIC CELL BASIS 3  0 0 34.68
Info: PERIODIC CELL CENTER   0 0 0
Info: WRAPPING WATERS AROUND PERIODIC BOUNDARIES ON OUTPUT.
Info: WRAPPING ALL CLUSTERS AROUND PERIODIC BOUNDARIES ON OUTPUT.
Info: FIRST LDB TIMESTEP     50
Info: LAST LDB TIMESTEP     -1
Info: HOM BACKGROUND SCALING 1
Info: PME BACKGROUND SCALING 1
Info: MIN ATOMS PER PATCH    40
Info: EMPTY PATCH LOAD       40 ATOMS
Info: INITIAL TEMPERATURE    300
Info: CENTER OF MASS MOVING INITIALLY? NO
Info: DIELECTRIC             1
Info: EXCLUDE                SCALED ONE-FOUR
Info: 1-4 ELECTROSTATICS SCALED BY 0.833333
Info: MODIFIED 1-4 VDW PARAMETERS WILL BE USED
Info: DCD FILENAME           mobley_2198613_equil.dcd
Info: DCD FREQUENCY          100000
Info: DCD FIRST STEP         100000
Info: DCD FILE WILL CONTAIN UNIT CELL DATA
Info: XST FILENAME           mobley_2198613_equil.xst
Info: XST FREQUENCY          100000
Info: NO VELOCITY DCD OUTPUT
Info: NO FORCE DCD OUTPUT
Info: OUTPUT FILENAME        mobley_2198613_equil
Info: BINARY OUTPUT FILES WILL BE USED
Info: RESTART FILENAME       mobley_2198613_equil.restart
Info: RESTART FREQUENCY      100000
Info: BINARY RESTART FILES WILL BE USED
Info: CUTOFF                 9
Info: PAIRLIST DISTANCE      11
Info: PAIRLIST SHRINK RATE   0.01
Info: PAIRLIST GROW RATE     0.01
Info: PAIRLIST TRIGGER       0.3
Info: PAIRLISTS PER CYCLE    2
Info: PAIRLISTS ENABLED
Info: MARGIN                 8
Info: HYDROGEN GROUP CUTOFF  2.5
Info: PATCH DIMENSION        21.5
Info: ENERGY OUTPUT STEPS    100000
Info: ENERGY EVALUATION STEPS    100000
Info: OUTPUT ENERGY PRECISION 4
Info: CROSSTERM ENERGY INCLUDED IN DIHEDRAL
Info: TIMING OUTPUT STEPS    1000000
Info: PRESSURE OUTPUT STEPS  100000
Info: LANGEVIN DYNAMICS ACTIVE
Info: LANGEVIN TEMPERATURE   30
Info: LANGEVIN USING BBK INTEGRATOR
Info: LANGEVIN DAMPING COEFFICIENT IS 1 INVERSE PS
Info: LANGEVIN DYNAMICS APPLIED TO HYDROGENS
Info: LANGEVIN PISTON PRESSURE CONTROL ACTIVE
Info:        TARGET PRESSURE IS 1.01325 BAR
Info:     OSCILLATION PERIOD IS 50 FS
Info:             DECAY TIME IS 25 FS
Info:     PISTON TEMPERATURE IS 300 K
Info:       PRESSURE CONTROL IS GROUP-BASED
Info:    INITIAL STRAIN RATE IS 0 0 0
Info:       CELL FLUCTUATION IS ISOTROPIC
Info: PARTICLE MESH EWALD (PME) ACTIVE
Info: PME TOLERANCE               1e-06
Info: PME EWALD COEFFICIENT       0.348832
Info: PME INTERPOLATION ORDER     4
Info: PME GRID DIMENSIONS         40 36 36
Info: PME MAXIMUM GRID SPACING    1
Info: FULL ELECTROSTATIC EVALUATION FREQUENCY      2
Info: USING VERLET I (r-RESPA) MTS SCHEME.
Info: C1 SPLITTING OF LONG RANGE ELECTROSTATICS
Info: PLACING ATOMS IN PATCHES BY HYDROGEN GROUPS
Info: RIGID BONDS TO HYDROGEN : ALL
Info:         ERROR TOLERANCE : 1e-08
Info:          MAX ITERATIONS : 100
Info: RIGID WATER USING SETTLE ALGORITHM
Info: RANDOM NUMBER SEED     1742331101
Info: USE HYDROGEN BONDS?    NO
Info: Using AMBER format force field!
Info: AMBER PARM FILE        mobley_2198613.prmtop
Info: COORDINATE PDB         mobley_2198613.pdb
Info: Exclusions will be read from PARM file!
Info: SCNB (VDW SCALING)     2
Info: USING ARITHMETIC MEAN TO COMBINE L-J SIGMA PARAMETERS
Info: BINARY COORDINATES     mobley_2198613_min.coor
Info: SUMMARY OF PARAMETERS:
Info: 6 BONDS
Info: 6 ANGLES
Info:   6 HARMONIC
Info:   0 COSINE-BASED
Info: 2 DIHEDRAL
Info: 0 IMPROPER
Info: 0 CROSSTERM
Info: 0 VDW
Info: 21 VDW_PAIRS
Info: 0 NBTHOLE_PAIRS
Info: STRUCTURE SUMMARY:
Info: 2927 ATOMS
Info: 2926 BONDS
Info: 12 ANGLES
Info: 9 DIHEDRALS
Info: 0 IMPROPERS
Info: 0 CROSSTERMS
Info: 2947 EXCLUSIONS
Info: 2924 RIGID BONDS
Info: 5857 DEGREES OF FREEDOM
Info: 976 HYDROGEN GROUPS
Info: 4 ATOMS IN LARGEST HYDROGEN GROUP
Info: 976 MIGRATION GROUPS
Info: 4 ATOMS IN LARGEST MIGRATION GROUP
Info: TOTAL MASS = 17594.1 amu
Info: TOTAL CHARGE = 0 e
Info: MASS DENSITY = 0.672006 g/cm^3
Info: ATOM DENSITY = 0.067324 atoms/A^3
Info: ADDED 0 IMPLICIT EXCLUSIONS
Info: NONBONDED TABLE R-SQUARED SPACING: 0.0625
Info: NONBONDED TABLE SIZE: 705 POINTS
Info: REMOVING COM VELOCITY 0.0511679 0.122779 0.0734253
TCL: Running for 100000 steps
ETITLE: TS BOND ANGLE DIHED IMPRP ELECT VDW BOUNDARY MISC KINETIC TOTAL TEMP POTENTIAL TOTAL3 TEMPAVG PRESSURE GPRESSURE VOLUME PRESSAVG GPRESSAVG
ENERGY: 0 0.0036 0.1022 0.0008 0.0000 -13501.7024 2351.1990 0.0000 0.0000 1761.4048 -9388.9921 302.6735 -11150.3969 -9388.6382 302.6735 334.7713 368.5343 43476.3018 334.7713 368.5343
ENERGY: 100000 0.0587 0.3085 0.0042 0.0000 -14060.7336 2416.0648 0.0000 0.0000 177.9289 -11466.3684 30.5747 -11644.2973 -11465.7681 30.9026 -56.0873 9.9948 28607.7112 5.7972 5.7608
TCL: Running 100000 steps at 60 kelvin.
TCL: Setting parameter langevinTemp to 60
TCL: Running for 100000 steps
ETITLE: TS BOND ANGLE DIHED IMPRP ELECT VDW BOUNDARY MISC KINETIC TOTAL TEMP POTENTIAL TOTAL3 TEMPAVG PRESSURE GPRESSURE VOLUME PRESSAVG GPRESSAVG
ENERGY: 100000 0.0587 0.3085 0.0042 0.0000 -14060.7336 2416.0648 0.0000 0.0000 177.8417 -11466.4556 30.5597 -11644.2973 -11466.0480 30.5597 -44.9420 10.3742 28607.7112 -44.9420 10.3742
ENERGY: 200000 0.0060 0.5199 0.1240 0.0000 -14037.4900 2446.9157 0.0000 0.0000 356.4876 -11233.4367 61.2575 -11589.9243 -11232.4684 60.0629 394.2705 464.4323 28463.6283 2.5134 2.4899
TCL: Running 100000 steps at 90 kelvin.
TCL: Setting parameter langevinTemp to 90
TCL: Running for 100000 steps
ETITLE: TS BOND ANGLE DIHED IMPRP ELECT VDW BOUNDARY MISC KINETIC TOTAL TEMP POTENTIAL TOTAL3 TEMPAVG PRESSURE GPRESSURE VOLUME PRESSAVG GPRESSAVG
ENERGY: 200000 0.0060 0.5199 0.1240 0.0000 -14037.4900 2446.9157 0.0000 0.0000 356.3121 -11233.6122 61.2274 -11589.9243 -11232.7994 61.2274 405.1358 463.8768 28463.6283 405.1358 463.8768
ENERGY: 300000 0.1114 0.8808 0.0048 0.0000 -13866.8527 2363.6926 0.0000 0.0000 520.3047 -10981.8585 89.4073 -11502.1632 -10980.5583 89.5919 -6.2557 77.1174 28435.0728 3.6559 3.7270
TCL: Running 100000 steps at 120 kelvin.
TCL: Setting parameter langevinTemp to 120
TCL: Running for 100000 steps
ETITLE: TS BOND ANGLE DIHED IMPRP ELECT VDW BOUNDARY MISC KINETIC TOTAL TEMP POTENTIAL TOTAL3 TEMPAVG PRESSURE GPRESSURE VOLUME PRESSAVG GPRESSAVG
ENERGY: 300000 0.1114 0.8808 0.0048 0.0000 -13866.8527 2363.6926 0.0000 0.0000 520.0408 -10982.1224 89.3619 -11502.1632 -10980.8900 89.3619 28.2811 76.8521 28435.0728 28.2811 76.8521
ENERGY: 400000 0.3308 1.0645 0.0143 0.0000 -13679.0638 2302.6458 0.0000 0.0000 688.0666 -10686.9418 118.2349 -11375.0084 -10684.6776 119.9115 57.5567 121.7420 28305.4566 4.7254 4.7376
TCL: Running 100000 steps at 150 kelvin.
TCL: Setting parameter langevinTemp to 150
TCL: Running for 100000 steps
ETITLE: TS BOND ANGLE DIHED IMPRP ELECT VDW BOUNDARY MISC KINETIC TOTAL TEMP POTENTIAL TOTAL3 TEMPAVG PRESSURE GPRESSURE VOLUME PRESSAVG GPRESSAVG
ENERGY: 400000 0.3308 1.0645 0.0143 0.0000 -13679.0638 2302.6458 0.0000 0.0000 687.7164 -10687.2920 118.1747 -11375.0084 -10686.1199 118.1747 69.0413 123.1223 28305.4566 69.0413 123.1223
ENERGY: 500000 0.0694 2.1238 0.1714 0.0000 -13367.4468 2174.4899 0.0000 0.0000 897.7271 -10292.8653 154.2622 -11190.5923 -10289.9785 150.2245 -408.0851 -300.1982 28523.2894 4.8975 4.8053
TCL: Running 100000 steps at 180 kelvin.
TCL: Setting parameter langevinTemp to 180
TCL: Running for 100000 steps
ETITLE: TS BOND ANGLE DIHED IMPRP ELECT VDW BOUNDARY MISC KINETIC TOTAL TEMP POTENTIAL TOTAL3 TEMPAVG PRESSURE GPRESSURE VOLUME PRESSAVG GPRESSAVG
ENERGY: 500000 0.0694 2.1238 0.1714 0.0000 -13367.4468 2174.4899 0.0000 0.0000 897.2685 -10293.3238 154.1834 -11190.5923 -10292.2902 154.1834 -363.6131 -300.3020 28523.2894 -363.6131 -300.3020
ENERGY: 600000 0.2218 1.0002 0.3380 0.0000 -13098.6280 2195.3970 0.0000 0.0000 1034.5151 -9867.1559 177.7673 -10901.6710 -9865.3041 180.4595 890.0714 922.8137 28471.0932 3.7192 3.7279
TCL: Running 100000 steps at 210 kelvin.
TCL: Setting parameter langevinTemp to 210
TCL: Running for 100000 steps
ETITLE: TS BOND ANGLE DIHED IMPRP ELECT VDW BOUNDARY MISC KINETIC TOTAL TEMP POTENTIAL TOTAL3 TEMPAVG PRESSURE GPRESSURE VOLUME PRESSAVG GPRESSAVG
ENERGY: 600000 0.2218 1.0002 0.3380 0.0000 -13098.6280 2195.3970 0.0000 0.0000 1034.0210 -9867.6500 177.6824 -10901.6710 -9866.2949 177.6824 868.7204 922.6527 28471.0932 868.7204 922.6527
ENERGY: 700000 0.7391 1.9165 0.9577 0.0000 -12430.6529 1907.7122 0.0000 0.0000 1236.7837 -9282.5437 212.5245 -10519.3273 -9279.7717 209.8983 102.1728 183.9804 28326.9845 2.7082 2.7385
TCL: Running 100000 steps at 240 kelvin.
TCL: Setting parameter langevinTemp to 240
TCL: Running for 100000 steps
ETITLE: TS BOND ANGLE DIHED IMPRP ELECT VDW BOUNDARY MISC KINETIC TOTAL TEMP POTENTIAL TOTAL3 TEMPAVG PRESSURE GPRESSURE VOLUME PRESSAVG GPRESSAVG
ENERGY: 700000 0.7391 1.9165 0.9577 0.0000 -12430.6529 1907.7122 0.0000 0.0000 1236.1484 -9283.1789 212.4153 -10519.3273 -9281.4082 212.4153 106.0815 183.3120 28326.9845 106.0815 183.3120
ENERGY: 800000 0.7920 2.1549 0.7569 0.0000 -11562.3333 1597.1593 0.0000 0.0000 1347.0720 -8614.3982 231.4760 -9961.4702 -8612.0576 239.3960 -645.3150 -548.1282 28610.5320 4.4211 4.4738
TCL: Running 100000 steps at 270 kelvin.
TCL: Setting parameter langevinTemp to 270
TCL: Running for 100000 steps
ETITLE: TS BOND ANGLE DIHED IMPRP ELECT VDW BOUNDARY MISC KINETIC TOTAL TEMP POTENTIAL TOTAL3 TEMPAVG PRESSURE GPRESSURE VOLUME PRESSAVG GPRESSAVG
ENERGY: 800000 0.7920 2.1549 0.7569 0.0000 -11562.3333 1597.1593 0.0000 0.0000 1346.3511 -8615.1192 231.3521 -9961.4702 -8613.1679 231.3521 -652.4156 -547.9450 28610.5320 -652.4156 -547.9450
ENERGY: 900000 0.1174 3.2772 0.0554 0.0000 -11022.5813 1453.6937 0.0000 0.0000 1521.0510 -8044.3865 261.3719 -9565.4375 -8040.0752 269.7183 -950.3755 -868.9148 29639.0507 2.6204 2.6005
TCL: Running 1000000 steps at 300 kelvin.
TCL: Setting parameter langevinTemp to 300
TCL: Running for 1000000 steps
ETITLE: TS BOND ANGLE DIHED IMPRP ELECT VDW BOUNDARY MISC KINETIC TOTAL TEMP POTENTIAL TOTAL3 TEMPAVG PRESSURE GPRESSURE VOLUME PRESSAVG GPRESSAVG
ENERGY: 900000 0.1174 3.2772 0.0554 0.0000 -11022.5813 1453.6937 0.0000 0.0000 1520.3034 -8045.1341 261.2435 -9565.4375 -8042.3234 261.2435 -949.7468 -867.8651 29639.0507 -949.7468 -867.8651
ENERGY: 1100000 0.1461 2.8402 0.5300 0.0000 -10631.1804 1402.2602 0.0000 0.0000 1723.7544 -7501.6495 296.2038 -9225.4040 -7498.6322 300.5082 -398.3207 -308.1558 30440.3814 3.3492 3.3995
ENERGY: 1300000 0.2705 3.8076 0.1374 0.0000 -10737.4272 1501.4671 0.0000 0.0000 1781.6411 -7450.1035 306.1508 -9231.7446 -7445.9715 300.1815 504.6255 613.1506 29975.7763 2.7451 2.4929
ENERGY: 1500000 0.0417 3.4900 2.6083 0.0000 -10556.8624 1391.1971 0.0000 0.0000 1748.7964 -7410.7289 300.5069 -9159.5253 -7407.9527 300.0757 23.7820 35.1292 29963.2435 3.7650 3.4433
ENERGY: 1700000 1.8738 2.9552 0.2262 0.0000 -10670.2199 1480.4888 0.0000 0.0000 1722.5925 -7462.0834 296.0041 -9184.6760 -7458.2820 300.4581 465.9088 607.5231 29981.8072 3.5188 3.5086
ENERGY: 1900000 0.3245 4.9398 0.7202 0.0000 -10680.3658 1448.9994 0.0000 0.0000 1761.5203 -7463.8616 302.6933 -9225.3819 -7461.0293 300.2392 171.1173 219.7599 30094.2870 4.0772 4.2800
TCL: Exiting due to exit command.
