Info: SIMULATION PARAMETERS:
Info: TIMESTEP               2
Info: NUMBER OF STEPS        0
Info: STEPS PER CYCLE        10
Info: PERIODIC CELL BASIS 1  31.567 0 0
Info: PERIODIC CELL BASIS 2  0 29.3805 0
Info: PERIODIC CELL BASIS 3  0 0 32.7148
Info: PERIODIC CELL CENTER   0 0 0
Info: WRAPPING WATERS AROUND PERIODIC BOUNDARIES ON OUTPUT.
Info: WRAPPING ALL CLUSTERS AROUND PERIODIC BOUNDARIES ON OUTPUT.
Info: FIRST LDB TIMESTEP     50
Info: LAST LDB TIMESTEP     -1
Info: HOM BACKGROUND SCALING 1
Info: PME BACKGROUND SCALING 1
Info: MIN ATOMS PER PATCH    40
Info: EMPTY PATCH LOAD       40 ATOMS
Info: VELOCITY FILE          mobley_2489709_equil.vel
Info: CENTER OF MASS MOVING INITIALLY? NO
Info: DIELECTRIC             1
Info: EXCLUDE                SCALED ONE-FOUR
Info: 1-4 ELECTROSTATICS SCALED BY 0.833333
Info: MODIFIED 1-4 VDW PARAMETERS WILL BE USED
Info: DCD FILENAME           mobley_2489709_prod.dcd
Info: DCD FREQUENCY          100000
Info: DCD FIRST STEP         100000
Info: DCD FILE WILL CONTAIN UNIT CELL DATA
Info: XST FILENAME           mobley_2489709_prod.xst
Info: XST FREQUENCY          100000
Info: NO VELOCITY DCD OUTPUT
Info: NO FORCE DCD OUTPUT
Info: OUTPUT FILENAME        mobley_2489709_prod
Info: BINARY OUTPUT FILES WILL BE USED
Info: RESTART FILENAME       mobley_2489709_prod.restart
Info: RESTART FREQUENCY      100000
Info: BINARY RESTART FILES WILL BE USED
Info: CUTOFF                 9
Info: PAIRLIST DISTANCE      11
Info: PAIRLIST SHRINK RATE   0.01
Info: PAIRLIST GROW RATE     0.01
Info: PAIRLIST TRIGGER       0.3
Info: PAIRLISTS PER CYCLE    2
Info: PAIRLISTS ENABLED
Info: MARGIN                 2
Info: HYDROGEN GROUP CUTOFF  2.5
Info: PATCH DIMENSION        15.5
Info: ENERGY OUTPUT STEPS    100000
Info: ENERGY EVALUATION STEPS    100000
Info: OUTPUT ENERGY PRECISION 4
Info: CROSSTERM ENERGY INCLUDED IN DIHEDRAL
Info: TIMING OUTPUT STEPS    1000000
Info: PRESSURE OUTPUT STEPS  100000
Info: ALCHEMICAL FEP ON
Info: FEP CURRENT LAMBDA VALUE     1
Info: FEP COMPARISON LAMBDA VALUE  0.95
Info: FEP INTRA-ALCHEMICAL NON-BONDED INTERACTIONS WILL BE RETAINED
Info: FEP INTRA-ALCHEMICAL BONDED INTERACTIONS WILL BE RETAINED
Info: FEP VDW SHIFTING COEFFICIENT 5
Info: FEP ELEC. ACTIVE FOR ANNIHILATED PARTICLES BETWEEN LAMBDA = 0 AND LAMBDA = 0.5
Info: FEP ELEC. ACTIVE FOR EXNIHILATED PARTICLES BETWEEN LAMBDA = 0.5 AND LAMBDA = 1
Info: FEP VDW ACTIVE FOR ANNIHILATED PARTICLES BETWEEN LAMBDA = 0 AND LAMBDA = 1
Info: FEP VDW ACTIVE FOR EXNIHILATED PARTICLES BETWEEN LAMBDA = 0 AND LAMBDA = 1
Info: FEP BOND ACTIVE FOR ANNIHILATED PARTICLES BETWEEN LAMBDA = 1 AND LAMBDA = 1
Info: FEP BOND ACTIVE FOR EXNIHILATED PARTICLES BETWEEN LAMBDA = 0 AND LAMBDA = 0
Info: LANGEVIN DYNAMICS ACTIVE
Info: LANGEVIN TEMPERATURE   300
Info: LANGEVIN USING BBK INTEGRATOR
Info: LANGEVIN DAMPING COEFFICIENT IS 1 INVERSE PS
Info: LANGEVIN DYNAMICS APPLIED TO HYDROGENS
Info: LANGEVIN PISTON PRESSURE CONTROL ACTIVE
Info:        TARGET PRESSURE IS 1.01325 BAR
Info:     OSCILLATION PERIOD IS 50 FS
Info:             DECAY TIME IS 25 FS
Info:     PISTON TEMPERATURE IS 300 K
Info:       PRESSURE CONTROL IS GROUP-BASED
Info:    INITIAL STRAIN RATE IS -0.000384481 -0.000384481 -0.000384481
Info:       CELL FLUCTUATION IS ISOTROPIC
Info: PARTICLE MESH EWALD (PME) ACTIVE
Info: PME TOLERANCE               1e-06
Info: PME EWALD COEFFICIENT       0.348832
Info: PME INTERPOLATION ORDER     4
Info: PME GRID DIMENSIONS         32 32 36
Info: PME MAXIMUM GRID SPACING    1
Info: PME CALCULATION WILL BE PERFORMED ON GPU
Info: FULL ELECTROSTATIC EVALUATION FREQUENCY      2
Info: USING VERLET I (r-RESPA) MTS SCHEME.
Info: C1 SPLITTING OF LONG RANGE ELECTROSTATICS
Info: PLACING ATOMS IN PATCHES BY HYDROGEN GROUPS
Info: RIGID BONDS TO HYDROGEN : ALL
Info:         ERROR TOLERANCE : 1e-08
Info:          MAX ITERATIONS : 100
Info: RIGID WATER USING SETTLE ALGORITHM
Info: RANDOM NUMBER SEED     1742169743
Info: USE HYDROGEN BONDS?    NO
Info: Using AMBER format force field!
Info: AMBER PARM FILE        mobley_2489709.prmtop
Info: COORDINATE PDB         mobley_2489709.pdb
Info: Exclusions will be read from PARM file!
Info: SCNB (VDW SCALING)     2
Info: USING ARITHMETIC MEAN TO COMBINE L-J SIGMA PARAMETERS
Info: BINARY COORDINATES     mobley_2489709_equil.coor
Info: SUMMARY OF PARAMETERS:
Info: 5 BONDS
Info: 3 ANGLES
Info:   3 HARMONIC
Info:   0 COSINE-BASED
Info: 2 DIHEDRAL
Info: 0 IMPROPER
Info: 0 CROSSTERM
Info: 0 VDW
Info: 15 VDW_PAIRS
Info: 0 NBTHOLE_PAIRS
Info: To read alchdata from file: mobley_2489709.pdb
Info: To read alchflag data from column: 5
Info: STRUCTURE SUMMARY:
Info: 2958 ATOMS
Info: 2958 BONDS
Info: 18 ANGLES
Info: 30 DIHEDRALS
Info: 0 IMPROPERS
Info: 0 CROSSTERMS
Info: 2997 EXCLUSIONS
Info: 2950 RIGID BONDS
Info: ALCH: 0 ATOMS TO DISAPPEAR IN FINAL STATE
Info: ALCH: 12 ATOMS TO APPEAR IN FINAL STATE
Info: 5924 DEGREES OF FREEDOM
Info: 990 HYDROGEN GROUPS
Info: 3 ATOMS IN LARGEST HYDROGEN GROUP
Info: 990 MIGRATION GROUPS
Info: 3 ATOMS IN LARGEST MIGRATION GROUP
Info: TOTAL MASS = 17838.7 amu
Info: TOTAL CHARGE = 0.00010002 e
Info: MASS DENSITY = 0.976305 g/cm^3
Info: ATOM DENSITY = 0.0974902 atoms/A^3
Info: ADDED 0 IMPLICIT EXCLUSIONS
Info: NONBONDED TABLE R-SQUARED SPACING: 0.0625
Info: NONBONDED TABLE SIZE: 705 POINTS
Info: REMOVING COM VELOCITY -0.0344479 0.112581 -0.0486745
Info: Use 3D box decompostion in PME FFT.
Info: Updated CUDA force table with 4096 elements.
Info: Updated CUDA LJ table with 5 x 5 elements.
Info: Found 14 unique exclusion lists needing 24 bytes
TCL: Running for 1500000 steps
ETITLE: TS BOND ANGLE DIHED IMPRP ELECT VDW BOUNDARY MISC KINETIC TOTAL TEMP POTENTIAL TOTALAVG TEMPAVG PRESSURE GPRESSURE VOLUME PRESSAVG GPRESSAVG
ENERGY: 0 3.7540 2.6060 3.4361 0.0000 -10684.3396 1474.4944 0.0000 0.0000 1765.3967 -7434.6525 299.9284 -9200.0492 -7434.6525 299.9284 411.3662 487.2711 30341.5095 411.3662 487.2711
ENERGY: 300000 7.7533 1.4666 2.6078 0.0000 -10683.0809 1347.2549 0.0000 0.0000 1714.9925 -7609.0057 291.3651 -9323.9982 -7538.5287 294.2564 -940.1559 -825.7398 30302.8776 81.9699 169.7569
ENERGY: 600000 3.5321 1.5403 1.5740 0.0000 -10618.1068 1316.9780 0.0000 0.0000 1783.2350 -7511.2475 302.9590 -9294.4824 -7510.8640 297.9933 -1040.8789 -973.7448 30536.9200 -118.6698 -40.4291
ENERGY: 900000 4.6046 3.5220 5.0321 0.0000 -10662.8024 1385.5071 0.0000 0.0000 1818.0187 -7446.1181 308.8685 -9264.1368 -7504.8189 299.4795 -333.0242 -268.1127 30624.5923 -132.5369 -59.2917
ENERGY: 1200000 1.5526 1.7987 1.0365 0.0000 -10741.3644 1452.2788 0.0000 0.0000 1755.6364 -7529.0614 298.2702 -9284.6977 -7507.2372 299.9918 144.6265 229.4503 30311.1919 -163.9657 -92.8754
ENERGY: 1500000 2.7104 1.1580 2.0274 0.0000 -10687.4501 1402.0977 0.0000 0.0000 1756.6207 -7522.8358 298.4375 -9279.4565 -7507.1571 299.6016 -542.5952 -517.1750 31025.1089 -78.8664 -16.0187
TCL: Running FEP window   2: Lambda1 0.95   Lambda2 0.8999999999999999 [dLambda -0.050000000000000044]
TCL: Setting parameter firsttimestep to 0
TCL: Setting parameter alchLambda to 0.95
Info: NONBONDED TABLE R-SQUARED SPACING: 0.0625
Info: NONBONDED TABLE SIZE: 705 POINTS
TCL: Setting parameter alchLambda2 to 0.8999999999999999
Info: NONBONDED TABLE R-SQUARED SPACING: 0.0625
Info: NONBONDED TABLE SIZE: 705 POINTS
TCL: Running for 1500000 steps
ETITLE: TS BOND ANGLE DIHED IMPRP ELECT VDW BOUNDARY MISC KINETIC TOTAL TEMP POTENTIAL TOTALAVG TEMPAVG PRESSURE GPRESSURE VOLUME PRESSAVG GPRESSAVG
ENERGY: 0 2.7104 1.1580 2.0274 0.0000 -10686.8029 1401.9297 0.0000 0.0000 1755.7128 -7523.2644 298.2832 -9278.9772 -7523.2644 298.2832 -610.7440 -533.2927 31025.1089 -610.7440 -533.2927
ENERGY: 300000 2.9847 3.9474 2.5049 0.0000 -10921.3769 1511.2989 0.0000 0.0000 1743.4900 -7657.1510 296.2066 -9400.6411 -7536.9705 298.6722 298.9320 371.1358 30360.8669 -178.2150 -112.9692
ENERGY: 600000 1.5448 3.4327 2.4461 0.0000 -10743.0546 1492.8250 0.0000 0.0000 1874.1174 -7368.6886 318.3993 -9242.8060 -7506.8877 303.0797 346.0821 353.4527 31003.2405 -51.5968 -3.1822
ENERGY: 900000 1.1479 3.3189 1.8561 0.0000 -10826.5376 1577.2399 0.0000 0.0000 1774.7720 -7468.2029 301.5212 -9242.9749 -7509.4739 301.9834 1265.5770 1381.3093 30247.2699 79.2655 143.2616
ENERGY: 1200000 2.2179 3.6382 2.2461 0.0000 -10758.5531 1476.2710 0.0000 0.0000 1765.7951 -7508.3849 299.9961 -9274.1799 -7513.8883 300.8649 152.2264 204.1709 31031.4362 142.1031 204.7448
ENERGY: 1500000 1.5682 1.0206 2.2374 0.0000 -10937.0941 1536.8060 0.0000 0.0000 1775.7287 -7619.7331 301.6838 -9395.4618 -7517.2558 300.4361 806.2931 790.2387 30024.5911 115.1242 174.4171
TCL: Running FEP window   3: Lambda1 0.8999999999999999 Lambda2 0.8499999999999999 [dLambda -0.050000000000000044]
TCL: Setting parameter firsttimestep to 0
TCL: Setting parameter alchLambda to 0.8999999999999999
Info: NONBONDED TABLE R-SQUARED SPACING: 0.0625
Info: NONBONDED TABLE SIZE: 705 POINTS
TCL: Setting parameter alchLambda2 to 0.8499999999999999
Info: NONBONDED TABLE R-SQUARED SPACING: 0.0625
Info: NONBONDED TABLE SIZE: 705 POINTS
TCL: Running for 1500000 steps
ETITLE: TS BOND ANGLE DIHED IMPRP ELECT VDW BOUNDARY MISC KINETIC TOTAL TEMP POTENTIAL TOTALAVG TEMPAVG PRESSURE GPRESSURE VOLUME PRESSAVG GPRESSAVG
ENERGY: 0 1.5682 1.0206 2.2374 0.0000 -10936.6068 1536.3798 0.0000 0.0000 1774.8729 -7620.5279 301.5384 -9395.4008 -7620.5279 301.5384 702.4148 773.3507 30024.5911 702.4148 773.3507
ENERGY: 300000 2.2036 1.4338 1.8195 0.0000 -10736.0785 1429.0941 0.0000 0.0000 1765.4015 -7536.1260 299.9293 -9301.5275 -7517.9207 302.6083 -6.0632 134.3998 30219.8189 38.0672 114.2215
ENERGY: 600000 4.7714 2.0830 3.4829 0.0000 -10637.8919 1386.0090 0.0000 0.0000 1734.5339 -7507.0117 294.6851 -9241.5456 -7512.1527 300.6566 -595.2751 -520.4452 30869.9370 -129.3530 -60.2763
ENERGY: 900000 2.6312 1.3103 3.6946 0.0000 -10749.0662 1492.7087 0.0000 0.0000 1814.7533 -7433.9681 308.3138 -9248.7214 -7515.0963 299.8118 631.7908 677.9847 30297.7476 -80.0702 -8.5786
ENERGY: 1200000 3.2632 2.8068 1.7456 0.0000 -10701.1232 1413.7748 0.0000 0.0000 1792.2883 -7487.2446 304.4971 -9279.5329 -7514.3531 299.7938 -372.4138 -316.7134 30719.1186 -119.4741 -46.9900
ENERGY: 1500000 0.9876 2.4174 2.6053 0.0000 -10675.8173 1456.0538 0.0000 0.0000 1746.6937 -7467.0594 296.7509 -9213.7531 -7508.8628 299.8757 326.1808 349.8465 30768.3406 -121.4076 -51.0976
TCL: Running FEP window   4: Lambda1 0.8499999999999999 Lambda2 0.7999999999999998 [dLambda -0.050000000000000044]
TCL: Setting parameter firsttimestep to 0
TCL: Setting parameter alchLambda to 0.8499999999999999
Info: NONBONDED TABLE R-SQUARED SPACING: 0.0625
Info: NONBONDED TABLE SIZE: 705 POINTS
TCL: Setting parameter alchLambda2 to 0.7999999999999998
Info: NONBONDED TABLE R-SQUARED SPACING: 0.0625
Info: NONBONDED TABLE SIZE: 705 POINTS
TCL: Running for 1500000 steps
ETITLE: TS BOND ANGLE DIHED IMPRP ELECT VDW BOUNDARY MISC KINETIC TOTAL TEMP POTENTIAL TOTALAVG TEMPAVG PRESSURE GPRESSURE VOLUME PRESSAVG GPRESSAVG
ENERGY: 0 0.9876 2.4174 2.6053 0.0000 -10675.5632 1456.5080 0.0000 0.0000 1745.8182 -7467.2267 296.6022 -9213.0449 -7467.2267 296.6022 244.6763 343.2863 30768.3406 244.6763 343.2863
ENERGY: 300000 2.1359 3.1139 2.9529 0.0000 -10683.7661 1429.1580 0.0000 0.0000 1776.6697 -7469.7356 301.8436 -9246.4053 -7460.9550 298.0041 -232.1167 -158.4224 30850.2339 294.3064 371.9334
ENERGY: 600000 4.2634 1.4186 3.6702 0.0000 -10755.7400 1454.7262 0.0000 0.0000 1761.8573 -7529.8042 299.3271 -9291.6616 -7486.5086 299.3677 -115.2656 -66.1559 30484.4044 154.2294 221.0000
ENERGY: 900000 1.5216 3.2988 2.9616 0.0000 -10672.7842 1387.4575 0.0000 0.0000 1741.1632 -7536.3815 295.8113 -9277.5447 -7510.5227 297.3107 -664.7856 -558.2082 30798.8930 -1.8385 65.7145
ENERGY: 1200000 2.9146 2.4676 2.0688 0.0000 -10864.5317 1541.2181 0.0000 0.0000 1778.7661 -7537.0966 302.1998 -9315.8627 -7501.3275 298.8821 733.3475 792.2649 30368.4859 67.3000 144.4860
ENERGY: 1500000 3.0956 3.6248 1.8574 0.0000 -10598.7269 1422.0782 0.0000 0.0000 1750.1066 -7417.9644 297.3308 -9168.0710 -7505.5615 298.2162 -53.8116 -0.5099 30910.3157 41.5157 117.2287
TCL: Running FEP window   5: Lambda1 0.7999999999999998 Lambda2 0.7499999999999998 [dLambda -0.050000000000000044]
TCL: Setting parameter firsttimestep to 0
TCL: Setting parameter alchLambda to 0.7999999999999998
Info: NONBONDED TABLE R-SQUARED SPACING: 0.0625
Info: NONBONDED TABLE SIZE: 705 POINTS
TCL: Setting parameter alchLambda2 to 0.7499999999999998
Info: NONBONDED TABLE R-SQUARED SPACING: 0.0625
Info: NONBONDED TABLE SIZE: 705 POINTS
TCL: Running for 1500000 steps
ETITLE: TS BOND ANGLE DIHED IMPRP ELECT VDW BOUNDARY MISC KINETIC TOTAL TEMP POTENTIAL TOTALAVG TEMPAVG PRESSURE GPRESSURE VOLUME PRESSAVG GPRESSAVG
ENERGY: 0 3.0956 3.6248 1.8574 0.0000 -10598.5467 1422.4940 0.0000 0.0000 1749.2217 -7418.2534 297.1804 -9167.4751 -7418.2534 297.1804 -89.8081 -8.9015 30910.3157 -89.8081 -8.9015
ENERGY: 300000 1.3916 2.7175 3.1991 0.0000 -10717.0582 1428.4585 0.0000 0.0000 1801.1980 -7480.0935 306.0108 -9281.2915 -7498.0903 297.2952 -214.9055 -158.6870 30581.0628 -31.9490 53.0996
ENERGY: 600000 2.4212 1.6920 1.2764 0.0000 -10763.3549 1421.9701 0.0000 0.0000 1742.7802 -7593.2150 296.0861 -9335.9953 -7501.2460 299.7611 -499.6633 -401.1732 30728.3835 -6.4374 78.2286
ENERGY: 900000 1.0259 3.1699 1.2181 0.0000 -10685.3269 1453.9557 0.0000 0.0000 1706.0537 -7519.9035 289.8465 -9225.9573 -7494.9978 300.6408 198.7173 234.1255 30650.4640 -37.9444 40.3142
ENERGY: 1200000 1.3219 4.0782 4.2013 0.0000 -10751.2094 1465.3965 0.0000 0.0000 1774.8282 -7501.3832 301.5308 -9276.2114 -7487.2309 301.3213 114.1305 163.0582 30581.1510 -77.6100 -1.2663
ENERGY: 1500000 2.7394 4.7911 2.8549 0.0000 -10667.2264 1446.2017 0.0000 0.0000 1764.8475 -7445.7918 299.8351 -9210.6393 -7487.7358 300.8196 -1.3414 12.0028 30907.7163 -50.8327 18.6572
TCL: Running FEP window   6: Lambda1 0.7499999999999998 Lambda2 0.6999999999999997 [dLambda -0.050000000000000044]
TCL: Setting parameter firsttimestep to 0
TCL: Setting parameter alchLambda to 0.7499999999999998
Info: NONBONDED TABLE R-SQUARED SPACING: 0.0625
Info: NONBONDED TABLE SIZE: 705 POINTS
TCL: Setting parameter alchLambda2 to 0.6999999999999997
Info: NONBONDED TABLE R-SQUARED SPACING: 0.0625
Info: NONBONDED TABLE SIZE: 705 POINTS
TCL: Running for 1500000 steps
ETITLE: TS BOND ANGLE DIHED IMPRP ELECT VDW BOUNDARY MISC KINETIC TOTAL TEMP POTENTIAL TOTALAVG TEMPAVG PRESSURE GPRESSURE VOLUME PRESSAVG GPRESSAVG
ENERGY: 0 2.7394 4.7911 2.8549 0.0000 -10666.9165 1446.2694 0.0000 0.0000 1763.9483 -7446.3134 299.6824 -9210.2617 -7446.3134 299.6824 -65.4358 5.1608 30907.7163 -65.4358 5.1608
ENERGY: 300000 3.2585 4.0332 1.9050 0.0000 -10670.9929 1435.1620 0.0000 0.0000 1772.5266 -7454.1075 301.1398 -9226.6341 -7454.8860 301.8063 193.2800 262.3917 30203.0287 -252.8097 -207.6830
ENERGY: 600000 1.4332 1.2897 2.0085 0.0000 -10703.3285 1460.1985 0.0000 0.0000 1751.4306 -7486.9681 297.5557 -9238.3987 -7480.9657 300.7345 178.9919 283.4547 30360.3663 -93.6161 -32.3752
ENERGY: 900000 1.7802 0.9570 2.3886 0.0000 -10778.7431 1478.2894 0.0000 0.0000 1726.1195 -7569.2085 293.2555 -9295.3279 -7495.5811 300.3408 196.6503 277.3626 30248.3457 -96.6757 -45.5743
ENERGY: 1200000 4.8098 1.4380 1.5858 0.0000 -10812.9696 1506.5039 0.0000 0.0000 1756.3288 -7542.3033 298.3879 -9298.6320 -7497.8744 300.1858 406.3689 445.7355 30245.3947 34.7159 87.6182
ENERGY: 1500000 3.7207 1.3202 2.7502 0.0000 -10739.1090 1434.0444 0.0000 0.0000 1765.6951 -7531.5784 299.9791 -9297.2736 -7503.0494 300.3367 -170.2476 -118.1463 30554.7300 1.4622 53.9020
TCL: Running FEP window   7: Lambda1 0.6999999999999997 Lambda2 0.6499999999999997 [dLambda -0.050000000000000044]
TCL: Setting parameter firsttimestep to 0
TCL: Setting parameter alchLambda to 0.6999999999999997
Info: NONBONDED TABLE R-SQUARED SPACING: 0.0625
Info: NONBONDED TABLE SIZE: 705 POINTS
TCL: Setting parameter alchLambda2 to 0.6499999999999997
Info: NONBONDED TABLE R-SQUARED SPACING: 0.0625
Info: NONBONDED TABLE SIZE: 705 POINTS
TCL: Running for 1500000 steps
ETITLE: TS BOND ANGLE DIHED IMPRP ELECT VDW BOUNDARY MISC KINETIC TOTAL TEMP POTENTIAL TOTALAVG TEMPAVG PRESSURE GPRESSURE VOLUME PRESSAVG GPRESSAVG
ENERGY: 0 3.7207 1.3202 2.7502 0.0000 -10738.7029 1434.3432 0.0000 0.0000 1764.8170 -7531.7516 299.8299 -9296.5686 -7531.7516 299.8299 -204.4689 -120.9032 30554.7300 -204.4689 -120.9032
ENERGY: 300000 4.3626 2.3555 5.0485 0.0000 -10662.9481 1441.9217 0.0000 0.0000 1741.3853 -7467.8745 295.8491 -9209.2598 -7504.5889 299.7581 292.8901 344.3302 30302.5653 67.6823 145.8601
ENERGY: 600000 2.1880 0.9271 3.3137 0.0000 -10729.3612 1487.2006 0.0000 0.0000 1786.7971 -7448.9347 303.5642 -9235.7318 -7502.8853 299.9831 205.2963 267.1807 30919.3089 -71.9244 -2.1303
ENERGY: 900000 0.5537 3.8001 4.5301 0.0000 -10791.8367 1484.9784 0.0000 0.0000 1771.5931 -7526.3813 300.9812 -9297.9744 -7515.2821 298.6122 337.3485 311.2540 30579.3460 -161.5446 -106.3577
ENERGY: 1200000 2.3158 2.5475 1.8464 0.0000 -10739.1762 1394.0960 0.0000 0.0000 1730.3578 -7608.0127 293.9756 -9338.3704 -7519.5904 298.9828 -440.1496 -408.2353 30201.3387 -134.4050 -87.9138
ENERGY: 1500000 2.6670 3.1579 4.2843 0.0000 -10753.0009 1405.9339 0.0000 0.0000 1753.6640 -7583.2938 297.9351 -9336.9578 -7521.8189 298.7928 -557.9300 -465.0259 30435.2360 -138.1325 -89.8365
TCL: Running FEP window   8: Lambda1 0.6499999999999997 Lambda2 0.5999999999999996 [dLambda -0.050000000000000044]
TCL: Setting parameter firsttimestep to 0
TCL: Setting parameter alchLambda to 0.6499999999999997
Info: NONBONDED TABLE R-SQUARED SPACING: 0.0625
Info: NONBONDED TABLE SIZE: 705 POINTS
TCL: Setting parameter alchLambda2 to 0.5999999999999996
Info: NONBONDED TABLE R-SQUARED SPACING: 0.0625
Info: NONBONDED TABLE SIZE: 705 POINTS
TCL: Running for 1500000 steps
ETITLE: TS BOND ANGLE DIHED IMPRP ELECT VDW BOUNDARY MISC KINETIC TOTAL TEMP POTENTIAL TOTALAVG TEMPAVG PRESSURE GPRESSURE VOLUME PRESSAVG GPRESSAVG
ENERGY: 0 2.6670 3.1579 4.2843 0.0000 -10752.8390 1406.2148 0.0000 0.0000 1752.8005 -7583.7145 297.7884 -9336.5150 -7583.7145 297.7884 -542.9053 -470.4749 30435.2360 -542.9053 -470.4749
ENERGY: 300000 0.9002 4.0415 2.8756 0.0000 -10590.2331 1421.1665 0.0000 0.0000 1790.9292 -7370.3201 304.2662 -9161.2493 -7471.3157 301.1689 74.1908 148.7480 30503.7486 -32.9605 23.8352
ENERGY: 600000 2.2262 1.5821 3.1274 0.0000 -10605.8629 1326.3676 0.0000 0.0000 1725.5997 -7546.9599 293.1672 -9272.5595 -7484.4109 301.0283 -1271.0409 -1126.9092 30924.3872 -209.3790 -142.5691
ENERGY: 900000 1.5068 2.5011 3.0522 0.0000 -10741.9159 1492.8534 0.0000 0.0000 1801.1896 -7440.8127 306.0094 -9242.0023 -7496.8248 300.6636 426.5970 514.1686 30474.4546 -108.5803 -47.4414
ENERGY: 1200000 0.9550 2.4813 7.7179 0.0000 -10830.4253 1517.0968 0.0000 0.0000 1801.5090 -7500.6653 306.0637 -9302.1743 -7488.3790 302.2654 228.1078 347.9603 30616.8399 -4.6830 59.2137
ENERGY: 1500000 1.1654 2.6033 3.0743 0.0000 -10733.8032 1442.1793 0.0000 0.0000 1764.8366 -7519.9444 299.8333 -9284.7809 -7493.1179 301.7624 -89.4649 -34.4564 30173.3566 -102.7897 -41.2206
TCL: Running FEP window   9: Lambda1 0.5999999999999996 Lambda2 0.5499999999999996 [dLambda -0.050000000000000044]
TCL: Setting parameter firsttimestep to 0
TCL: Setting parameter alchLambda to 0.5999999999999996
Info: NONBONDED TABLE R-SQUARED SPACING: 0.0625
Info: NONBONDED TABLE SIZE: 705 POINTS
TCL: Setting parameter alchLambda2 to 0.5499999999999996
Info: NONBONDED TABLE R-SQUARED SPACING: 0.0625
Info: NONBONDED TABLE SIZE: 705 POINTS
TCL: Running for 1500000 steps
ETITLE: TS BOND ANGLE DIHED IMPRP ELECT VDW BOUNDARY MISC KINETIC TOTAL TEMP POTENTIAL TOTALAVG TEMPAVG PRESSURE GPRESSURE VOLUME PRESSAVG GPRESSAVG
ENERGY: 0 1.1654 2.6033 3.0743 0.0000 -10733.4830 1442.4484 0.0000 0.0000 1763.9395 -7520.2523 299.6809 -9284.1918 -7520.2523 299.6809 -133.3527 -41.5954 30173.3566 -133.3527 -41.5954
ENERGY: 300000 1.9379 3.0684 1.8910 0.0000 -10650.0153 1417.0977 0.0000 0.0000 1808.6751 -7417.3452 307.2811 -9226.0202 -7494.0664 300.6191 -120.8407 17.6943 30625.6062 87.3133 147.2144
ENERGY: 600000 2.0844 4.4854 4.1142 0.0000 -10739.8857 1486.1173 0.0000 0.0000 1715.7285 -7527.3559 291.4902 -9243.0843 -7508.4073 301.0723 200.9336 174.1401 30602.0494 -42.0854 -0.5451
ENERGY: 900000 3.4223 2.5658 1.6055 0.0000 -10694.5570 1401.0849 0.0000 0.0000 1803.3314 -7482.5470 306.3733 -9285.8784 -7514.9332 301.7478 -331.7723 -277.2703 30310.4610 -52.4098 -4.4668
ENERGY: 1200000 3.8758 0.7323 2.7112 0.0000 -10819.9128 1474.6392 0.0000 0.0000 1758.6465 -7579.3077 298.7816 -9337.9543 -7518.7421 300.7911 65.2545 89.3841 30083.7978 -44.5694 6.8718
ENERGY: 1500000 1.2570 3.4431 2.0641 0.0000 -10765.1383 1435.0391 0.0000 0.0000 1715.0989 -7608.2361 291.3832 -9323.3350 -7524.0297 299.2727 -449.9153 -402.0204 30888.0810 -78.6532 -21.7782
TCL: Running FEP window  10: Lambda1 0.5499999999999996 Lambda2 0.4999999999999996 [dLambda -0.04999999999999999]
TCL: Setting parameter firsttimestep to 0
TCL: Setting parameter alchLambda to 0.5499999999999996
Info: NONBONDED TABLE R-SQUARED SPACING: 0.0625
Info: NONBONDED TABLE SIZE: 705 POINTS
TCL: Setting parameter alchLambda2 to 0.4999999999999996
Info: NONBONDED TABLE R-SQUARED SPACING: 0.0625
Info: NONBONDED TABLE SIZE: 705 POINTS
TCL: Running for 1500000 steps
ETITLE: TS BOND ANGLE DIHED IMPRP ELECT VDW BOUNDARY MISC KINETIC TOTAL TEMP POTENTIAL TOTALAVG TEMPAVG PRESSURE GPRESSURE VOLUME PRESSAVG GPRESSAVG
ENERGY: 0 1.2570 3.4431 2.0641 0.0000 -10765.0695 1435.2929 0.0000 0.0000 1714.2406 -7608.7718 291.2374 -9323.0124 -7608.7718 291.2374 -497.7756 -408.5802 30888.0810 -497.7756 -408.5802
ENERGY: 300000 2.5647 2.6286 1.3281 0.0000 -10683.2682 1396.1818 0.0000 0.0000 1715.0826 -7565.4824 291.3804 -9280.5650 -7550.0274 297.1515 -507.0128 -457.1694 30687.3553 -260.6890 -201.2532
ENERGY: 600000 1.0345 3.3024 4.5207 0.0000 -10761.3259 1459.7309 0.0000 0.0000 1721.6093 -7571.1281 292.4893 -9292.7374 -7540.5586 298.2646 -319.3261 -186.2689 30827.7655 -264.4014 -197.5454
ENERGY: 900000 1.8566 1.1836 2.5957 0.0000 -10846.7826 1474.7742 0.0000 0.0000 1808.6110 -7557.7616 307.2702 -9366.3726 -7532.0517 299.4759 -2.6186 63.9869 30371.5820 -328.7197 -258.8327
ENERGY: 1200000 3.2123 3.9967 2.6073 0.0000 -10963.1242 1578.0895 0.0000 0.0000 1757.5426 -7617.6758 298.5941 -9375.2184 -7539.3529 298.9462 990.3527 1023.4180 29867.0322 -190.2763 -129.2749
ENERGY: 1500000 1.1454 1.7187 1.2239 0.0000 -10588.6371 1374.4530 0.0000 0.0000 1802.0161 -7408.0801 306.1498 -9210.0961 -7521.2364 299.5080 -243.6656 -184.2296 30280.0168 -148.4947 -88.8895
TCL: Running FEP window  11: Lambda1 0.4999999999999996 Lambda2 0.4499999999999996 [dLambda -0.04999999999999999]
TCL: Setting parameter firsttimestep to 0
TCL: Setting parameter alchLambda to 0.4999999999999996
Info: NONBONDED TABLE R-SQUARED SPACING: 0.0625
Info: NONBONDED TABLE SIZE: 705 POINTS
TCL: Setting parameter alchLambda2 to 0.4499999999999996
Info: NONBONDED TABLE R-SQUARED SPACING: 0.0625
Info: NONBONDED TABLE SIZE: 705 POINTS
TCL: Running for 1500000 steps
ETITLE: TS BOND ANGLE DIHED IMPRP ELECT VDW BOUNDARY MISC KINETIC TOTAL TEMP POTENTIAL TOTALAVG TEMPAVG PRESSURE GPRESSURE VOLUME PRESSAVG GPRESSAVG
ENERGY: 0 1.1454 1.7187 1.2239 0.0000 -10588.4229 1374.5276 0.0000 0.0000 1801.1533 -7408.6540 306.0032 -9209.8073 -7408.6540 306.0032 -280.9092 -190.2075 30280.0168 -280.9092 -190.2075
ENERGY: 300000 4.0527 1.6347 4.1171 0.0000 -10739.6631 1484.2479 0.0000 0.0000 1741.8547 -7503.7559 295.9288 -9245.6106 -7485.7723 299.5178 426.6777 524.5262 30489.7463 -171.2327 -89.1703
ENERGY: 600000 2.5309 5.0001 2.4123 0.0000 -10777.2469 1514.9898 0.0000 0.0000 1790.2052 -7462.1085 304.1432 -9252.3138 -7485.4752 299.2114 747.1300 787.0632 30054.3270 -221.2734 -148.9677
ENERGY: 900000 0.9784 3.3671 5.7613 0.0000 -10741.4546 1444.0795 0.0000 0.0000 1812.6093 -7474.6590 307.9495 -9287.2684 -7494.4413 299.2234 152.1334 185.1818 30165.8096 -157.7583 -86.6272
ENERGY: 1200000 2.7342 2.6100 1.9985 0.0000 -10563.6033 1332.9047 0.0000 0.0000 1768.7158 -7454.6400 300.4923 -9223.3559 -7487.2572 299.2075 -882.9520 -791.9080 30602.9521 -95.0356 -20.0587
ENERGY: 1500000 1.9315 1.3356 2.2590 0.0000 -10606.9645 1381.2616 0.0000 0.0000 1677.3467 -7542.8301 284.9694 -9220.1768 -7496.7922 297.9774 -539.6945 -497.0063 30672.5970 -129.7353 -63.3128
TCL: Running FEP window  12: Lambda1 0.4499999999999996 Lambda2 0.39999999999999963 [dLambda -0.04999999999999999]
TCL: Setting parameter firsttimestep to 0
TCL: Setting parameter alchLambda to 0.4499999999999996
Info: NONBONDED TABLE R-SQUARED SPACING: 0.0625
Info: NONBONDED TABLE SIZE: 705 POINTS
TCL: Setting parameter alchLambda2 to 0.39999999999999963
Info: NONBONDED TABLE R-SQUARED SPACING: 0.0625
Info: NONBONDED TABLE SIZE: 705 POINTS
TCL: Running for 1500000 steps
ETITLE: TS BOND ANGLE DIHED IMPRP ELECT VDW BOUNDARY MISC KINETIC TOTAL TEMP POTENTIAL TOTALAVG TEMPAVG PRESSURE GPRESSURE VOLUME PRESSAVG GPRESSAVG
ENERGY: 0 1.9315 1.3356 2.2590 0.0000 -10606.9630 1381.7790 0.0000 0.0000 1676.4666 -7543.1915 284.8198 -9219.6580 -7543.1915 284.8198 -591.7124 -498.6171 30672.5970 -591.7124 -498.6171
ENERGY: 300000 1.6452 3.6588 3.7701 0.0000 -10573.4753 1364.0837 0.0000 0.0000 1747.1330 -7453.1846 296.8256 -9200.3176 -7464.8616 295.8992 -602.9053 -507.1871 30459.4209 16.4442 88.4012
ENERGY: 600000 1.4172 2.4968 3.9012 0.0000 -10770.4157 1449.7993 0.0000 0.0000 1678.7353 -7634.0660 285.2053 -9312.8012 -7498.9634 297.2719 86.9591 86.1736 30353.9610 12.6914 78.1510
ENERGY: 900000 2.3402 1.7371 1.5482 0.0000 -10727.4451 1441.2864 0.0000 0.0000 1752.2845 -7528.2485 297.7008 -9280.5330 -7491.8881 298.5797 -324.2299 -247.8325 30938.2724 -45.2307 17.6661
ENERGY: 1200000 0.6292 1.6218 4.8293 0.0000 -10794.8608 1509.5011 0.0000 0.0000 1810.9363 -7467.3430 307.6653 -9278.2793 -7486.2721 300.5089 642.1554 644.2561 30192.6012 -47.8363 10.8406
ENERGY: 1500000 1.5143 0.6197 2.2492 0.0000 -10681.9724 1386.6686 0.0000 0.0000 1778.0940 -7512.8264 302.0856 -9290.9204 -7495.9519 300.6873 -343.3159 -299.0847 30336.5877 -86.2568 -31.2348
TCL: Running FEP window  13: Lambda1 0.39999999999999963 Lambda2 0.34999999999999964 [dLambda -0.04999999999999999]
TCL: Setting parameter firsttimestep to 0
TCL: Setting parameter alchLambda to 0.39999999999999963
Info: NONBONDED TABLE R-SQUARED SPACING: 0.0625
Info: NONBONDED TABLE SIZE: 705 POINTS
TCL: Setting parameter alchLambda2 to 0.34999999999999964
Info: NONBONDED TABLE R-SQUARED SPACING: 0.0625
Info: NONBONDED TABLE SIZE: 705 POINTS
TCL: Running for 1500000 steps
ETITLE: TS BOND ANGLE DIHED IMPRP ELECT VDW BOUNDARY MISC KINETIC TOTAL TEMP POTENTIAL TOTALAVG TEMPAVG PRESSURE GPRESSURE VOLUME PRESSAVG GPRESSAVG
ENERGY: 0 1.5143 0.6197 2.2492 0.0000 -10681.9714 1387.0649 0.0000 0.0000 1777.2173 -7513.3060 301.9367 -9290.5233 -7513.3060 301.9367 -380.5186 -302.6555 30336.5877 -380.5186 -302.6555
ENERGY: 300000 1.2840 2.3937 1.3315 0.0000 -10788.7505 1474.7715 0.0000 0.0000 1815.9113 -7493.0585 308.5105 -9308.9698 -7527.9097 303.6752 376.8961 466.5700 30113.4556 257.4260 335.7144
ENERGY: 600000 3.7627 1.6986 1.7559 0.0000 -10654.5333 1388.9079 0.0000 0.0000 1782.3922 -7476.0160 302.8159 -9258.4082 -7525.8943 302.1334 -648.5528 -518.9725 30742.9941 28.5571 115.5216
ENERGY: 900000 3.4019 1.0952 4.1986 0.0000 -10596.7092 1375.6449 0.0000 0.0000 1784.3246 -7428.0440 303.1442 -9212.3686 -7516.3419 301.3650 -514.6273 -466.4528 30451.6812 39.5146 111.9310
ENERGY: 1200000 2.7840 4.1524 0.7097 0.0000 -10764.5460 1526.0219 0.0000 0.0000 1805.2806 -7425.5975 306.7044 -9230.8780 -7511.7522 300.9993 443.3118 470.0465 30781.4677 -21.5331 47.8111
ENERGY: 1500000 1.2218 2.0721 2.4054 0.0000 -10734.5327 1435.3288 0.0000 0.0000 1745.5969 -7547.9078 296.5646 -9293.5047 -7510.0202 300.7468 -90.5489 8.0197 30110.1055 4.7887 76.2193
TCL: Running FEP window  14: Lambda1 0.34999999999999964 Lambda2 0.29999999999999966 [dLambda -0.04999999999999999]
TCL: Setting parameter firsttimestep to 0
TCL: Setting parameter alchLambda to 0.34999999999999964
Info: NONBONDED TABLE R-SQUARED SPACING: 0.0625
Info: NONBONDED TABLE SIZE: 705 POINTS
TCL: Setting parameter alchLambda2 to 0.29999999999999966
Info: NONBONDED TABLE R-SQUARED SPACING: 0.0625
Info: NONBONDED TABLE SIZE: 705 POINTS
TCL: Running for 1500000 steps
ETITLE: TS BOND ANGLE DIHED IMPRP ELECT VDW BOUNDARY MISC KINETIC TOTAL TEMP POTENTIAL TOTALAVG TEMPAVG PRESSURE GPRESSURE VOLUME PRESSAVG GPRESSAVG
ENERGY: 0 1.2218 2.0721 2.4054 0.0000 -10734.5330 1435.8177 0.0000 0.0000 1744.7384 -7548.2777 296.4187 -9293.0161 -7548.2777 296.4187 -72.4609 8.8790 30110.1055 -72.4609 8.8790
ENERGY: 300000 3.0858 3.5558 3.0087 0.0000 -10724.0602 1432.9189 0.0000 0.0000 1764.8138 -7516.6771 299.8294 -9281.4910 -7512.6893 299.9079 116.1976 140.8437 29896.9087 358.0911 426.7207
ENERGY: 600000 3.7156 1.6343 1.2772 0.0000 -10768.0435 1531.3125 0.0000 0.0000 1750.7014 -7479.4027 297.4318 -9230.1040 -7511.0640 299.2559 563.1404 578.8006 30555.7530 396.6812 455.6355
ENERGY: 900000 2.3694 1.8724 3.0723 0.0000 -10609.3069 1371.2143 0.0000 0.0000 1733.4743 -7497.3043 294.5050 -9230.7785 -7499.5223 301.0889 -894.3234 -821.0396 31076.5855 207.0610 255.3822
ENERGY: 1200000 2.5120 1.0671 2.1718 0.0000 -10581.8104 1371.3623 0.0000 0.0000 1775.0760 -7429.6213 301.5729 -9204.6973 -7487.9008 301.3872 -672.1227 -626.3747 31036.2445 156.9603 212.7053
ENERGY: 1500000 2.7217 3.1302 3.6668 0.0000 -10620.9606 1366.3794 0.0000 0.0000 1807.3584 -7437.7041 307.0574 -9245.0625 -7483.1295 302.1824 -945.8683 -838.5936 31219.3275 66.0016 124.5613
TCL: Running FEP window  15: Lambda1 0.29999999999999966 Lambda2 0.24999999999999967 [dLambda -0.04999999999999999]
TCL: Setting parameter firsttimestep to 0
TCL: Setting parameter alchLambda to 0.29999999999999966
Info: NONBONDED TABLE R-SQUARED SPACING: 0.0625
Info: NONBONDED TABLE SIZE: 705 POINTS
TCL: Setting parameter alchLambda2 to 0.24999999999999967
Info: NONBONDED TABLE R-SQUARED SPACING: 0.0625
Info: NONBONDED TABLE SIZE: 705 POINTS
TCL: Running for 1500000 steps
ETITLE: TS BOND ANGLE DIHED IMPRP ELECT VDW BOUNDARY MISC KINETIC TOTAL TEMP POTENTIAL TOTALAVG TEMPAVG PRESSURE GPRESSURE VOLUME PRESSAVG GPRESSAVG
ENERGY: 0 2.7217 3.1302 3.6668 0.0000 -10620.9598 1366.8930 0.0000 0.0000 1806.4927 -7438.0554 306.9104 -9244.5481 -7438.0554 306.9104 -916.0499 -839.0403 31219.3275 -916.0499 -839.0403
ENERGY: 300000 2.4089 2.0106 3.5791 0.0000 -10822.6057 1444.0129 0.0000 0.0000 1806.9282 -7563.6661 306.9843 -9370.5943 -7492.9806 305.6559 118.8083 124.3840 29761.6186 -111.4404 -56.3233
ENERGY: 600000 1.4221 3.3412 4.4087 0.0000 -10853.3232 1508.8118 0.0000 0.0000 1845.5908 -7489.7485 313.5528 -9335.3393 -7487.9822 306.2032 315.6496 383.8329 30289.9391 119.5996 192.2194
ENERGY: 900000 3.9627 6.9968 3.5020 0.0000 -10627.8162 1392.7316 0.0000 0.0000 1763.1711 -7457.4520 299.5503 -9220.6231 -7483.0133 304.1562 -410.7071 -294.9007 30548.6233 189.0069 264.6052
ENERGY: 1200000 1.4695 2.0278 2.3611 0.0000 -10556.2966 1367.7667 0.0000 0.0000 1788.9198 -7393.7518 303.9248 -9182.6716 -7487.7749 302.6972 -563.0485 -480.0276 30857.7508 99.5632 174.2425
ENERGY: 1500000 2.4246 2.1494 3.0520 0.0000 -10712.1713 1391.5085 0.0000 0.0000 1691.8722 -7621.1646 287.4371 -9313.0368 -7494.9976 302.1011 -836.6264 -766.1966 30465.9838 47.7278 125.9115
TCL: Running FEP window  16: Lambda1 0.24999999999999967 Lambda2 0.19999999999999968 [dLambda -0.04999999999999999]
TCL: Setting parameter firsttimestep to 0
TCL: Setting parameter alchLambda to 0.24999999999999967
Info: NONBONDED TABLE R-SQUARED SPACING: 0.0625
Info: NONBONDED TABLE SIZE: 705 POINTS
TCL: Setting parameter alchLambda2 to 0.19999999999999968
Info: NONBONDED TABLE R-SQUARED SPACING: 0.0625
Info: NONBONDED TABLE SIZE: 705 POINTS
TCL: Running for 1500000 steps
ETITLE: TS BOND ANGLE DIHED IMPRP ELECT VDW BOUNDARY MISC KINETIC TOTAL TEMP POTENTIAL TOTALAVG TEMPAVG PRESSURE GPRESSURE VOLUME PRESSAVG GPRESSAVG
ENERGY: 0 2.4246 2.1494 3.0520 0.0000 -10712.1705 1391.7636 0.0000 0.0000 1691.0010 -7621.7798 287.2891 -9312.7809 -7621.7798 287.2891 -832.0378 -766.9306 30465.9838 -832.0378 -766.9306
ENERGY: 300000 1.6534 2.2653 2.2495 0.0000 -10678.8746 1364.0091 0.0000 0.0000 1761.8565 -7546.8408 299.3270 -9308.6973 -7526.4206 295.6120 -627.2089 -596.0945 30223.3657 -172.8952 -103.1710
ENERGY: 600000 3.8033 4.7237 4.3716 0.0000 -10691.7829 1429.5613 0.0000 0.0000 1730.8021 -7518.5209 294.0511 -9249.3230 -7510.6934 297.0855 31.0261 89.4767 30228.3534 -259.9966 -190.4554
ENERGY: 900000 0.5901 2.9087 1.1073 0.0000 -10672.5511 1510.5628 0.0000 0.0000 1798.2448 -7359.1374 305.5091 -9157.3822 -7471.1203 299.3364 901.0535 913.5329 30514.5025 -82.0439 -10.5609
ENERGY: 1200000 1.5040 3.4712 2.1196 0.0000 -10677.3537 1302.9351 0.0000 0.0000 1771.2921 -7596.0319 300.9300 -9367.3239 -7492.0064 298.6980 -1357.6253 -1332.6877 30235.0782 -213.9190 -149.7643
ENERGY: 1500000 4.5163 2.5236 1.2362 0.0000 -10584.7195 1428.8101 0.0000 0.0000 1764.8672 -7382.7661 299.8385 -9147.6334 -7491.7459 298.6821 235.6068 235.2106 30385.8329 -274.5781 -219.3777
TCL: Running FEP window  17: Lambda1 0.19999999999999968 Lambda2 0.1499999999999997 [dLambda -0.04999999999999999]
TCL: Setting parameter firsttimestep to 0
TCL: Setting parameter alchLambda to 0.19999999999999968
Info: NONBONDED TABLE R-SQUARED SPACING: 0.0625
Info: NONBONDED TABLE SIZE: 705 POINTS
TCL: Setting parameter alchLambda2 to 0.1499999999999997
Info: NONBONDED TABLE R-SQUARED SPACING: 0.0625
Info: NONBONDED TABLE SIZE: 705 POINTS
TCL: Running for 1500000 steps
ETITLE: TS BOND ANGLE DIHED IMPRP ELECT VDW BOUNDARY MISC KINETIC TOTAL TEMP POTENTIAL TOTALAVG TEMPAVG PRESSURE GPRESSURE VOLUME PRESSAVG GPRESSAVG
ENERGY: 0 4.5162 2.5236 1.2362 0.0000 -10584.7197 1428.2103 0.0000 0.0000 1763.9959 -7384.2374 299.6904 -9148.2333 -7384.2374 299.6904 150.4888 228.7701 30385.8329 150.4888 228.7701
ENERGY: 300000 0.6308 3.8059 4.2945 0.0000 -10632.6705 1366.1394 0.0000 0.0000 1741.2356 -7516.5644 295.8236 -9257.8000 -7518.7465 298.3852 -680.9789 -650.7907 30698.9456 -48.6011 18.8711
ENERGY: 600000 2.7605 1.7145 2.4469 0.0000 -10906.3897 1538.0966 0.0000 0.0000 1764.7812 -7596.5899 299.8239 -9361.3711 -7547.9382 298.1813 830.0909 901.1520 29942.7986 256.8912 325.6229
ENERGY: 900000 1.2225 1.0950 3.5465 0.0000 -10631.7025 1415.7799 0.0000 0.0000 1714.1620 -7495.8967 291.2240 -9210.0587 -7520.5540 297.3776 -100.5057 -28.6763 30449.7353 209.6165 277.7152
ENERGY: 1200000 2.7608 2.7418 1.9355 0.0000 -10711.9380 1441.5181 0.0000 0.0000 1805.3074 -7457.6744 306.7090 -9262.9818 -7522.0446 298.1294 -246.1246 -239.3616 30908.5048 141.1459 206.4584
ENERGY: 1500000 2.0780 1.6492 3.3409 0.0000 -10833.9009 1535.5799 0.0000 0.0000 1755.7746 -7535.4784 298.2937 -9291.2529 -7516.4631 298.8780 457.0727 538.2162 30756.2430 162.5595 228.3259
TCL: Running FEP window  18: Lambda1 0.1499999999999997 Lambda2 0.09999999999999969 [dLambda -0.05 ]
TCL: Setting parameter firsttimestep to 0
TCL: Setting parameter alchLambda to 0.1499999999999997
Info: NONBONDED TABLE R-SQUARED SPACING: 0.0625
Info: NONBONDED TABLE SIZE: 705 POINTS
TCL: Setting parameter alchLambda2 to 0.09999999999999969
Info: NONBONDED TABLE R-SQUARED SPACING: 0.0625
Info: NONBONDED TABLE SIZE: 705 POINTS
TCL: Running for 1500000 steps
ETITLE: TS BOND ANGLE DIHED IMPRP ELECT VDW BOUNDARY MISC KINETIC TOTAL TEMP POTENTIAL TOTALAVG TEMPAVG PRESSURE GPRESSURE VOLUME PRESSAVG GPRESSAVG
ENERGY: 0 2.0780 1.6492 3.3409 0.0000 -10833.8992 1536.1220 0.0000 0.0000 1754.8792 -7535.8299 298.1416 -9290.7091 -7535.8299 298.1416 459.5194 537.0938 30756.2430 459.5194 537.0938
ENERGY: 300000 2.4426 2.1019 2.0332 0.0000 -10757.5356 1470.5589 0.0000 0.0000 1738.8743 -7541.5247 295.4225 -9280.3990 -7535.5139 298.6325 25.5685 85.5932 30437.1464 133.0114 194.3954
ENERGY: 600000 2.4448 2.7979 3.7057 0.0000 -10758.5481 1429.2315 0.0000 0.0000 1819.8567 -7500.5115 309.1808 -9320.3682 -7509.2561 300.6501 -455.2836 -360.3652 30526.9581 -70.5027 -5.5665
ENERGY: 900000 1.6106 1.8167 2.8149 0.0000 -10819.7141 1520.5653 0.0000 0.0000 1762.5030 -7530.4035 299.4368 -9292.9065 -7509.4251 300.4116 733.2407 835.0896 29733.1853 -34.3671 30.4479
ENERGY: 1200000 1.7563 2.6256 3.5889 0.0000 -10634.3673 1391.2012 0.0000 0.0000 1764.6424 -7470.5528 299.8003 -9235.1952 -7497.0287 300.8780 -171.6342 -156.7146 30327.8831 -9.1463 45.3540
ENERGY: 1500000 2.0787 3.0437 1.6546 0.0000 -10829.4010 1522.8406 0.0000 0.0000 1762.1618 -7537.6215 299.3788 -9299.7833 -7506.3989 299.7183 409.9694 557.7581 30278.6123 -55.2883 8.1793
TCL: Running FEP window  19: Lambda1 0.09999999999999969 Lambda2 0.049999999999999684 [dLambda -0.05 ]
TCL: Setting parameter firsttimestep to 0
TCL: Setting parameter alchLambda to 0.09999999999999969
Info: NONBONDED TABLE R-SQUARED SPACING: 0.0625
Info: NONBONDED TABLE SIZE: 705 POINTS
TCL: Setting parameter alchLambda2 to 0.049999999999999684
Info: NONBONDED TABLE R-SQUARED SPACING: 0.0625
Info: NONBONDED TABLE SIZE: 705 POINTS
TCL: Running for 1500000 steps
ETITLE: TS BOND ANGLE DIHED IMPRP ELECT VDW BOUNDARY MISC KINETIC TOTAL TEMP POTENTIAL TOTALAVG TEMPAVG PRESSURE GPRESSURE VOLUME PRESSAVG GPRESSAVG
ENERGY: 0 2.0787 3.0437 1.6546 0.0000 -10829.4009 1523.4338 0.0000 0.0000 1761.2908 -7537.8992 299.2309 -9299.1900 -7537.8992 299.2309 472.3752 558.2413 30278.6123 472.3752 558.2413
ENERGY: 300000 0.6110 1.0688 2.8700 0.0000 -10669.8697 1399.1977 0.0000 0.0000 1741.1248 -7524.9974 295.8048 -9266.1222 -7539.0496 299.5018 -397.0488 -327.4687 30509.1041 -11.0280 59.8427
ENERGY: 600000 3.2025 2.7679 1.9799 0.0000 -10583.1316 1386.8021 0.0000 0.0000 1817.9841 -7370.3951 308.8627 -9188.3793 -7488.5903 300.1942 -88.0191 -24.4429 30053.4136 -111.9470 -51.0353
ENERGY: 900000 2.2943 2.2448 3.5499 0.0000 -10845.8894 1472.5512 0.0000 0.0000 1715.1854 -7650.0639 291.3979 -9365.2493 -7512.3135 298.6363 -46.3870 1.8024 30381.7546 -123.1240 -62.1793
ENERGY: 1200000 1.4573 4.3709 1.3058 0.0000 -10749.8024 1396.0260 0.0000 0.0000 1763.9207 -7582.7217 299.6777 -9346.6424 -7519.6796 298.6759 -698.4537 -638.0430 30491.5976 -139.7173 -78.4723
ENERGY: 1500000 3.9822 2.6744 2.3448 0.0000 -10831.7609 1522.9419 0.0000 0.0000 1792.5063 -7507.3114 304.5342 -9299.8176 -7508.5160 299.6202 623.2925 681.0500 30305.9183 -101.7393 -38.4966
TCL: Running FEP window  20: Lambda1 0.049999999999999684 Lambda2 0.0    [dLambda -0.049999999999999684]
TCL: Setting parameter firsttimestep to 0
TCL: Setting parameter alchLambda to 0.049999999999999684
Info: NONBONDED TABLE R-SQUARED SPACING: 0.0625
Info: NONBONDED TABLE SIZE: 705 POINTS
TCL: Setting parameter alchLambda2 to 0.0
Info: NONBONDED TABLE R-SQUARED SPACING: 0.0625
Info: NONBONDED TABLE SIZE: 705 POINTS
TCL: Running for 1500000 steps
ETITLE: TS BOND ANGLE DIHED IMPRP ELECT VDW BOUNDARY MISC KINETIC TOTAL TEMP POTENTIAL TOTALAVG TEMPAVG PRESSURE GPRESSURE VOLUME PRESSAVG GPRESSAVG
ENERGY: 0 3.9822 2.6744 2.3448 0.0000 -10831.7612 1522.7039 0.0000 0.0000 1791.6251 -7508.4308 304.3845 -9300.0559 -7508.4308 304.3845 593.6465 677.3533 30305.9183 593.6465 677.3533
ENERGY: 300000 1.6026 1.6736 2.8094 0.0000 -10864.3906 1513.7489 0.0000 0.0000 1797.8270 -7546.7291 305.4381 -9344.5561 -7497.0951 302.3580 139.3735 183.9567 30650.9549 150.1317 188.8171
ENERGY: 600000 4.2365 4.0587 3.2932 0.0000 -10802.2800 1470.6391 0.0000 0.0000 1753.3597 -7566.6929 297.8834 -9320.0525 -7499.1482 301.8995 5.5414 109.3054 30259.6594 134.5388 184.5803
ENERGY: 900000 2.7424 2.9333 1.8988 0.0000 -10686.9057 1401.4663 0.0000 0.0000 1715.5135 -7562.3515 291.4536 -9277.8650 -7493.7886 301.1673 -753.0813 -688.9781 30764.6944 -47.9143 4.1991
ENERGY: 1200000 2.4129 1.5405 4.0095 0.0000 -10596.8635 1411.7135 0.0000 0.0000 1705.5332 -7471.6539 289.7581 -9177.1871 -7496.8512 300.4950 -146.4656 -142.0660 30371.1707 -86.9484 -39.0598
ENERGY: 1500000 2.6059 2.5771 3.3251 0.0000 -10709.1364 1388.7107 0.0000 0.0000 1806.2593 -7505.6583 306.8707 -9311.9176 -7489.4299 300.6017 -687.8892 -591.6789 30505.9879 -69.6464 -24.5197
TCL: Exiting due to exit command.
