Info: SIMULATION PARAMETERS:
Info: TIMESTEP               2
Info: NUMBER OF STEPS        0
Info: STEPS PER CYCLE        10
Info: PERIODIC CELL BASIS 1  34.207 0 0
Info: PERIODIC CELL BASIS 2  0 35.411 0
Info: PERIODIC CELL BASIS 3  0 0 36.199
Info: PERIODIC CELL CENTER   0 0 0
Info: WRAPPING WATERS AROUND PERIODIC BOUNDARIES ON OUTPUT.
Info: WRAPPING ALL CLUSTERS AROUND PERIODIC BOUNDARIES ON OUTPUT.
Info: FIRST LDB TIMESTEP     50
Info: LAST LDB TIMESTEP     -1
Info: HOM BACKGROUND SCALING 1
Info: PME BACKGROUND SCALING 1
Info: MIN ATOMS PER PATCH    40
Info: EMPTY PATCH LOAD       40 ATOMS
Info: INITIAL TEMPERATURE    300
Info: CENTER OF MASS MOVING INITIALLY? NO
Info: DIELECTRIC             1
Info: EXCLUDE                SCALED ONE-FOUR
Info: 1-4 ELECTROSTATICS SCALED BY 0.833333
Info: MODIFIED 1-4 VDW PARAMETERS WILL BE USED
Info: DCD FILENAME           mobley_337666_equil.dcd
Info: DCD FREQUENCY          100000
Info: DCD FIRST STEP         100000
Info: DCD FILE WILL CONTAIN UNIT CELL DATA
Info: XST FILENAME           mobley_337666_equil.xst
Info: XST FREQUENCY          100000
Info: NO VELOCITY DCD OUTPUT
Info: NO FORCE DCD OUTPUT
Info: OUTPUT FILENAME        mobley_337666_equil
Info: BINARY OUTPUT FILES WILL BE USED
Info: RESTART FILENAME       mobley_337666_equil.restart
Info: RESTART FREQUENCY      100000
Info: BINARY RESTART FILES WILL BE USED
Info: CUTOFF                 9
Info: PAIRLIST DISTANCE      11
Info: PAIRLIST SHRINK RATE   0.01
Info: PAIRLIST GROW RATE     0.01
Info: PAIRLIST TRIGGER       0.3
Info: PAIRLISTS PER CYCLE    2
Info: PAIRLISTS ENABLED
Info: MARGIN                 8
Info: HYDROGEN GROUP CUTOFF  2.5
Info: PATCH DIMENSION        21.5
Info: ENERGY OUTPUT STEPS    100000
Info: ENERGY EVALUATION STEPS    100000
Info: OUTPUT ENERGY PRECISION 4
Info: CROSSTERM ENERGY INCLUDED IN DIHEDRAL
Info: TIMING OUTPUT STEPS    1000000
Info: PRESSURE OUTPUT STEPS  100000
Info: LANGEVIN DYNAMICS ACTIVE
Info: LANGEVIN TEMPERATURE   30
Info: LANGEVIN USING BBK INTEGRATOR
Info: LANGEVIN DAMPING COEFFICIENT IS 1 INVERSE PS
Info: LANGEVIN DYNAMICS APPLIED TO HYDROGENS
Info: LANGEVIN PISTON PRESSURE CONTROL ACTIVE
Info:        TARGET PRESSURE IS 1.01325 BAR
Info:     OSCILLATION PERIOD IS 50 FS
Info:             DECAY TIME IS 25 FS
Info:     PISTON TEMPERATURE IS 300 K
Info:       PRESSURE CONTROL IS GROUP-BASED
Info:    INITIAL STRAIN RATE IS 0 0 0
Info:       CELL FLUCTUATION IS ISOTROPIC
Info: PARTICLE MESH EWALD (PME) ACTIVE
Info: PME TOLERANCE               1e-06
Info: PME EWALD COEFFICIENT       0.348832
Info: PME INTERPOLATION ORDER     4
Info: PME GRID DIMENSIONS         36 36 40
Info: PME MAXIMUM GRID SPACING    1
Info: FULL ELECTROSTATIC EVALUATION FREQUENCY      2
Info: USING VERLET I (r-RESPA) MTS SCHEME.
Info: C1 SPLITTING OF LONG RANGE ELECTROSTATICS
Info: PLACING ATOMS IN PATCHES BY HYDROGEN GROUPS
Info: RIGID BONDS TO HYDROGEN : ALL
Info:         ERROR TOLERANCE : 1e-08
Info:          MAX ITERATIONS : 100
Info: RIGID WATER USING SETTLE ALGORITHM
Info: RANDOM NUMBER SEED     1742137865
Info: USE HYDROGEN BONDS?    NO
Info: Using AMBER format force field!
Info: AMBER PARM FILE        mobley_337666.prmtop
Info: COORDINATE PDB         mobley_337666.pdb
Info: Exclusions will be read from PARM file!
Info: SCNB (VDW SCALING)     2
Info: USING ARITHMETIC MEAN TO COMBINE L-J SIGMA PARAMETERS
Info: BINARY COORDINATES     mobley_337666_min.coor
Info: SUMMARY OF PARAMETERS:
Info: 10 BONDS
Info: 14 ANGLES
Info:   14 HARMONIC
Info:   0 COSINE-BASED
Info: 7 DIHEDRAL
Info: 0 IMPROPER
Info: 0 CROSSTERM
Info: 0 VDW
Info: 36 VDW_PAIRS
Info: 0 NBTHOLE_PAIRS
Info: STRUCTURE SUMMARY:
Info: 2958 ATOMS
Info: 2958 BONDS
Info: 18 ANGLES
Info: 31 DIHEDRALS
Info: 0 IMPROPERS
Info: 0 CROSSTERMS
Info: 2997 EXCLUSIONS
Info: 2949 RIGID BONDS
Info: 5925 DEGREES OF FREEDOM
Info: 991 HYDROGEN GROUPS
Info: 3 ATOMS IN LARGEST HYDROGEN GROUP
Info: 991 MIGRATION GROUPS
Info: 3 ATOMS IN LARGEST MIGRATION GROUP
Info: TOTAL MASS = 17821.8 amu
Info: TOTAL CHARGE = -0.000200007 e
Info: MASS DENSITY = 0.674933 g/cm^3
Info: ATOM DENSITY = 0.0674603 atoms/A^3
Info: ADDED 0 IMPLICIT EXCLUSIONS
Info: NONBONDED TABLE R-SQUARED SPACING: 0.0625
Info: NONBONDED TABLE SIZE: 705 POINTS
Info: REMOVING COM VELOCITY -0.0434165 -0.0575796 -0.156405
TCL: Running for 100000 steps
ETITLE: TS BOND ANGLE DIHED IMPRP ELECT VDW BOUNDARY MISC KINETIC TOTAL TEMP POTENTIAL TOTAL3 TEMPAVG PRESSURE GPRESSURE VOLUME PRESSAVG GPRESSAVG
ENERGY: 0 0.7558 1.0031 12.3582 0.0000 -13842.2766 2430.8323 0.0000 0.0000 1792.0743 -9605.2529 304.4094 -11397.3272 -9604.9235 304.4094 630.7169 666.3230 43847.9963 630.7169 666.3230
ENERGY: 100000 0.9943 1.6310 12.5130 0.0000 -14446.0255 2504.2021 0.0000 0.0000 179.7829 -11746.9022 30.5387 -11926.6852 -11746.2900 30.8865 -8.2228 30.4231 29089.6521 3.0787 3.0358
TCL: Running 100000 steps at 60 kelvin.
TCL: Setting parameter langevinTemp to 60
TCL: Running for 100000 steps
ETITLE: TS BOND ANGLE DIHED IMPRP ELECT VDW BOUNDARY MISC KINETIC TOTAL TEMP POTENTIAL TOTAL3 TEMPAVG PRESSURE GPRESSURE VOLUME PRESSAVG GPRESSAVG
ENERGY: 100000 0.9943 1.6310 12.5130 0.0000 -14446.0255 2504.2021 0.0000 0.0000 179.6917 -11746.9935 30.5232 -11926.6852 -11746.5494 30.5232 -8.6311 30.4503 29089.6521 -8.6311 30.4503
ENERGY: 200000 1.6821 2.2648 12.2942 0.0000 -14301.3241 2455.6055 0.0000 0.0000 357.3339 -11472.1436 60.6983 -11829.4775 -11470.9842 59.9282 17.2724 48.2547 29167.9302 5.2313 5.1898
TCL: Running 100000 steps at 90 kelvin.
TCL: Setting parameter langevinTemp to 90
TCL: Running for 100000 steps
ETITLE: TS BOND ANGLE DIHED IMPRP ELECT VDW BOUNDARY MISC KINETIC TOTAL TEMP POTENTIAL TOTAL3 TEMPAVG PRESSURE GPRESSURE VOLUME PRESSAVG GPRESSAVG
ENERGY: 200000 1.6821 2.2648 12.2942 0.0000 -14301.3241 2455.6055 0.0000 0.0000 357.1700 -11472.3076 60.6704 -11829.4775 -11471.6628 60.6704 -2.5298 48.6293 29167.9302 -2.5298 48.6293
ENERGY: 300000 0.4787 2.4172 13.0961 0.0000 -13990.3186 2267.0849 0.0000 0.0000 537.6779 -11169.5638 91.3323 -11707.2417 -11167.9825 89.8760 -1024.1753 -973.2003 29135.0631 4.8264 4.7807
TCL: Running 100000 steps at 120 kelvin.
TCL: Setting parameter langevinTemp to 120
TCL: Running for 100000 steps
ETITLE: TS BOND ANGLE DIHED IMPRP ELECT VDW BOUNDARY MISC KINETIC TOTAL TEMP POTENTIAL TOTAL3 TEMPAVG PRESSURE GPRESSURE VOLUME PRESSAVG GPRESSAVG
ENERGY: 300000 0.4787 2.4172 13.0961 0.0000 -13990.3186 2267.0849 0.0000 0.0000 537.4178 -11169.8239 91.2881 -11707.2417 -11168.5379 91.2881 -1033.1723 -973.3447 29135.0631 -1033.1723 -973.3447
ENERGY: 400000 1.1122 3.0249 12.8792 0.0000 -13830.9315 2213.2341 0.0000 0.0000 724.5537 -10876.1274 123.0758 -11600.6811 -10873.4393 119.9141 -1133.5419 -1082.3590 29156.8202 2.1564 2.3056
TCL: Running 100000 steps at 150 kelvin.
TCL: Setting parameter langevinTemp to 150
TCL: Running for 100000 steps
ETITLE: TS BOND ANGLE DIHED IMPRP ELECT VDW BOUNDARY MISC KINETIC TOTAL TEMP POTENTIAL TOTAL3 TEMPAVG PRESSURE GPRESSURE VOLUME PRESSAVG GPRESSAVG
ENERGY: 400000 1.1122 3.0249 12.8792 0.0000 -13830.9315 2213.2341 0.0000 0.0000 724.1967 -10876.4845 123.0151 -11600.6811 -10874.9536 123.0151 -1137.5187 -1082.1063 29156.8202 -1137.5187 -1082.1063
ENERGY: 500000 4.3425 1.5279 14.1770 0.0000 -13801.5462 2356.3622 0.0000 0.0000 884.1044 -10541.0322 150.1778 -11425.1366 -10538.2977 150.1053 743.6584 794.0035 29133.2576 3.7936 3.9710
TCL: Running 100000 steps at 180 kelvin.
TCL: Setting parameter langevinTemp to 180
TCL: Running for 100000 steps
ETITLE: TS BOND ANGLE DIHED IMPRP ELECT VDW BOUNDARY MISC KINETIC TOTAL TEMP POTENTIAL TOTAL3 TEMPAVG PRESSURE GPRESSURE VOLUME PRESSAVG GPRESSAVG
ENERGY: 500000 4.3425 1.5279 14.1770 0.0000 -13801.5462 2356.3622 0.0000 0.0000 883.6804 -10541.4562 150.1057 -11425.1366 -10539.7160 150.1057 744.9037 794.4043 29133.2576 744.9037 794.4043
ENERGY: 600000 2.6534 1.9737 12.4885 0.0000 -13172.5092 2019.4317 0.0000 0.0000 1051.9225 -10084.0393 178.6840 -11135.9618 -10080.3442 180.1650 -1328.8473 -1222.4859 29668.7968 4.5940 4.6951
TCL: Running 100000 steps at 210 kelvin.
TCL: Setting parameter langevinTemp to 210
TCL: Running for 100000 steps
ETITLE: TS BOND ANGLE DIHED IMPRP ELECT VDW BOUNDARY MISC KINETIC TOTAL TEMP POTENTIAL TOTAL3 TEMPAVG PRESSURE GPRESSURE VOLUME PRESSAVG GPRESSAVG
ENERGY: 600000 2.6534 1.9737 12.4885 0.0000 -13172.5092 2019.4317 0.0000 0.0000 1051.4032 -10084.5586 178.5958 -11135.9618 -10082.1136 178.5958 -1292.0607 -1223.0210 29668.7968 -1292.0607 -1223.0210
ENERGY: 700000 1.1816 2.5469 13.1779 0.0000 -12772.2637 2022.5425 0.0000 0.0000 1260.7058 -9472.1091 214.1489 -10732.8149 -9470.6470 209.7894 907.5436 958.4742 28596.4319 5.4027 5.2983
TCL: Running 100000 steps at 240 kelvin.
TCL: Setting parameter langevinTemp to 240
TCL: Running for 100000 steps
ETITLE: TS BOND ANGLE DIHED IMPRP ELECT VDW BOUNDARY MISC KINETIC TOTAL TEMP POTENTIAL TOTAL3 TEMPAVG PRESSURE GPRESSURE VOLUME PRESSAVG GPRESSAVG
ENERGY: 700000 1.1816 2.5469 13.1779 0.0000 -12772.2637 2022.5425 0.0000 0.0000 1260.1023 -9472.7126 214.0464 -10732.8149 -9470.3853 214.0464 871.1301 956.9523 28596.4319 871.1301 956.9523
ENERGY: 800000 2.9826 2.2536 14.6245 0.0000 -11933.6286 1756.6954 0.0000 0.0000 1421.0659 -8736.0065 241.3883 -10157.0724 -8732.9576 239.9907 242.6263 303.5541 29248.2546 4.2745 4.1625
TCL: Running 100000 steps at 270 kelvin.
TCL: Setting parameter langevinTemp to 270
TCL: Running for 100000 steps
ETITLE: TS BOND ANGLE DIHED IMPRP ELECT VDW BOUNDARY MISC KINETIC TOTAL TEMP POTENTIAL TOTAL3 TEMPAVG PRESSURE GPRESSURE VOLUME PRESSAVG GPRESSAVG
ENERGY: 800000 2.9826 2.2536 14.6245 0.0000 -11933.6286 1756.6954 0.0000 0.0000 1420.3543 -8736.7181 241.2674 -10157.0724 -8734.8807 241.2674 219.7207 305.0218 29248.2546 219.7207 305.0218
ENERGY: 900000 4.7487 4.1950 15.3645 0.0000 -11454.6478 1614.1826 0.0000 0.0000 1584.3186 -8231.8385 269.1191 -9816.1571 -8228.2190 269.8955 481.7012 575.4995 29359.6367 3.5976 3.4437
TCL: Running 1000000 steps at 300 kelvin.
TCL: Setting parameter langevinTemp to 300
TCL: Running for 1000000 steps
ETITLE: TS BOND ANGLE DIHED IMPRP ELECT VDW BOUNDARY MISC KINETIC TOTAL TEMP POTENTIAL TOTAL3 TEMPAVG PRESSURE GPRESSURE VOLUME PRESSAVG GPRESSAVG
ENERGY: 900000 4.7487 4.1950 15.3645 0.0000 -11454.6478 1614.1826 0.0000 0.0000 1583.5293 -8232.6278 268.9850 -9816.1571 -8230.2534 268.9850 482.0325 577.1517 29359.6367 482.0325 577.1517
ENERGY: 1100000 7.7229 2.7834 14.2263 0.0000 -11011.9381 1493.7156 0.0000 0.0000 1724.2668 -7769.2230 292.8913 -9493.4898 -7767.7020 299.7876 519.0489 585.1295 29979.0511 2.3112 2.2136
ENERGY: 1300000 4.2131 7.3126 14.2836 0.0000 -10736.6411 1352.1577 0.0000 0.0000 1733.7121 -7624.9620 294.4957 -9358.6741 -7619.4572 300.1391 -672.0739 -561.8155 30892.3353 3.5064 3.3748
ENERGY: 1500000 2.1672 2.2177 14.1390 0.0000 -10872.9976 1417.2173 0.0000 0.0000 1832.7437 -7604.5128 311.3177 -9437.2565 -7598.9650 300.7550 -248.1278 -120.1556 30645.7618 2.1802 2.5140
ENERGY: 1700000 2.1029 3.7045 16.5257 0.0000 -10909.9640 1438.1467 0.0000 0.0000 1839.9137 -7609.5705 312.5356 -9449.4842 -7605.9246 300.2806 -224.4558 -129.6039 30536.0052 4.0453 4.0440
ENERGY: 1900000 3.0779 3.3965 14.1569 0.0000 -10840.0453 1402.2439 0.0000 0.0000 1770.2481 -7646.9220 300.7019 -9417.1701 -7641.9914 300.7215 -438.3684 -354.4743 30626.1091 4.2336 4.2164
TCL: Exiting due to exit command.
