Info: SIMULATION PARAMETERS:
Info: TIMESTEP               2
Info: NUMBER OF STEPS        0
Info: STEPS PER CYCLE        10
Info: PERIODIC CELL BASIS 1  38.861 0 0
Info: PERIODIC CELL BASIS 2  0 40.459 0
Info: PERIODIC CELL BASIS 3  0 0 39.271
Info: PERIODIC CELL CENTER   0 0 0
Info: WRAPPING WATERS AROUND PERIODIC BOUNDARIES ON OUTPUT.
Info: WRAPPING ALL CLUSTERS AROUND PERIODIC BOUNDARIES ON OUTPUT.
Info: FIRST LDB TIMESTEP     50
Info: LAST LDB TIMESTEP     -1
Info: HOM BACKGROUND SCALING 1
Info: PME BACKGROUND SCALING 1
Info: MIN ATOMS PER PATCH    40
Info: EMPTY PATCH LOAD       40 ATOMS
Info: INITIAL TEMPERATURE    300
Info: CENTER OF MASS MOVING INITIALLY? NO
Info: DIELECTRIC             1
Info: EXCLUDE                SCALED ONE-FOUR
Info: 1-4 ELECTROSTATICS SCALED BY 0.833333
Info: MODIFIED 1-4 VDW PARAMETERS WILL BE USED
Info: DCD FILENAME           mobley_7690440_min.dcd
Info: DCD FREQUENCY          5000
Info: DCD FIRST STEP         5000
Info: DCD FILE WILL CONTAIN UNIT CELL DATA
Info: XST FILENAME           mobley_7690440_min.xst
Info: XST FREQUENCY          5000
Info: NO VELOCITY DCD OUTPUT
Info: NO FORCE DCD OUTPUT
Info: OUTPUT FILENAME        mobley_7690440_min
Info: BINARY OUTPUT FILES WILL BE USED
Info: RESTART FILENAME       mobley_7690440_min.restart
Info: RESTART FREQUENCY      5000
Info: BINARY RESTART FILES WILL BE USED
Info: CUTOFF                 9
Info: PAIRLIST DISTANCE      11
Info: PAIRLIST SHRINK RATE   0.01
Info: PAIRLIST GROW RATE     0.01
Info: PAIRLIST TRIGGER       0.3
Info: PAIRLISTS PER CYCLE    2
Info: PAIRLISTS ENABLED
Info: MARGIN                 8
Info: HYDROGEN GROUP CUTOFF  2.5
Info: PATCH DIMENSION        21.5
Info: ENERGY OUTPUT STEPS    5000
Info: ENERGY EVALUATION STEPS    5000
Info: OUTPUT ENERGY PRECISION 4
Info: CROSSTERM ENERGY INCLUDED IN DIHEDRAL
Info: TIMING OUTPUT STEPS    50000
Info: PRESSURE OUTPUT STEPS  5000
Info: LANGEVIN DYNAMICS ACTIVE
Info: LANGEVIN TEMPERATURE   300
Info: LANGEVIN USING BBK INTEGRATOR
Info: LANGEVIN DAMPING COEFFICIENT IS 1 INVERSE PS
Info: LANGEVIN DYNAMICS APPLIED TO HYDROGENS
Info: LANGEVIN PISTON PRESSURE CONTROL ACTIVE
Info:        TARGET PRESSURE IS 1.01325 BAR
Info:     OSCILLATION PERIOD IS 50 FS
Info:             DECAY TIME IS 25 FS
Info:     PISTON TEMPERATURE IS 300 K
Info:       PRESSURE CONTROL IS GROUP-BASED
Info:    INITIAL STRAIN RATE IS 0 0 0
Info:       CELL FLUCTUATION IS ISOTROPIC
Info: PARTICLE MESH EWALD (PME) ACTIVE
Info: PME TOLERANCE               1e-06
Info: PME EWALD COEFFICIENT       0.348832
Info: PME INTERPOLATION ORDER     4
Info: PME GRID DIMENSIONS         40 44 40
Info: PME MAXIMUM GRID SPACING    1
Info: FULL ELECTROSTATIC EVALUATION FREQUENCY      2
Info: USING VERLET I (r-RESPA) MTS SCHEME.
Info: C1 SPLITTING OF LONG RANGE ELECTROSTATICS
Info: PLACING ATOMS IN PATCHES BY HYDROGEN GROUPS
Info: RIGID BONDS TO HYDROGEN : ALL
Info:         ERROR TOLERANCE : 1e-08
Info:          MAX ITERATIONS : 100
Info: RIGID WATER USING SETTLE ALGORITHM
Info: RANDOM NUMBER SEED     1741407111
Info: USE HYDROGEN BONDS?    NO
Info: Using AMBER format force field!
Info: AMBER PARM FILE        mobley_7690440.prmtop
Info: COORDINATE PDB         mobley_7690440.pdb
Info: Exclusions will be read from PARM file!
Info: SCNB (VDW SCALING)     2
Info: USING ARITHMETIC MEAN TO COMBINE L-J SIGMA PARAMETERS
Info: SUMMARY OF PARAMETERS:
Info: 5 BONDS
Info: 3 ANGLES
Info:   3 HARMONIC
Info:   0 COSINE-BASED
Info: 2 DIHEDRAL
Info: 0 IMPROPER
Info: 0 CROSSTERM
Info: 0 VDW
Info: 15 VDW_PAIRS
Info: 0 NBTHOLE_PAIRS
Info: STRUCTURE SUMMARY:
Info: 4369 ATOMS
Info: 4368 BONDS
Info: 14 ANGLES
Info: 7 DIHEDRALS
Info: 0 IMPROPERS
Info: 0 CROSSTERMS
Info: 4389 EXCLUSIONS
Info: 4365 RIGID BONDS
Info: 8742 DEGREES OF FREEDOM
Info: 1457 HYDROGEN GROUPS
Info: 4 ATOMS IN LARGEST HYDROGEN GROUP
Info: 1457 MIGRATION GROUPS
Info: 4 ATOMS IN LARGEST MIGRATION GROUP
Info: TOTAL MASS = 26271.4 amu
Info: TOTAL CHARGE = 0.000100009 e
Info: MASS DENSITY = 0.706549 g/cm^3
Info: ATOM DENSITY = 0.0707589 atoms/A^3
Info: ADDED 0 IMPLICIT EXCLUSIONS
Info: NONBONDED TABLE R-SQUARED SPACING: 0.0625
Info: NONBONDED TABLE SIZE: 705 POINTS
Info: REMOVING COM VELOCITY 0.0345902 0.10636 -0.00399451
TCL: Minimizing for 2000 steps
ETITLE: TS BOND ANGLE DIHED IMPRP ELECT VDW BOUNDARY MISC KINETIC TOTAL TEMP POTENTIAL TOTAL3 TEMPAVG PRESSURE GPRESSURE VOLUME PRESSAVG GPRESSAVG
ENERGY: 0 0.7317 0.3123 0.0000 0.0000 -13384.3702 1477.9032 0.0000 0.0000 0.0000 -11905.4231 0.0000 -11905.4231 -11905.4231 0.0000 10508.2738 -15395.9506 61744.8979 10508.2738 -15395.9506
ENERGY: 400 20.4001 9.4688 0.0605 0.0000 -18851.8358 2965.8818 0.0000 0.0000 0.0000 -15856.0247 0.0000 -15856.0247 -15856.0247 0.0000 16926.9819 17065.5218 61744.8979 16926.9819 17065.5218
ENERGY: 800 0.4860 0.3007 0.0125 0.0000 -19569.7460 3242.7506 0.0000 0.0000 0.0000 -16326.1961 0.0000 -16326.1961 -16326.1961 0.0000 18428.4790 18524.1911 61744.8979 18428.4790 18524.1911
ENERGY: 1200 0.1995 0.1883 0.0600 0.0000 -19932.2344 3430.7270 0.0000 0.0000 0.0000 -16501.0596 0.0000 -16501.0596 -16501.0596 0.0000 19487.0242 19575.3306 61744.8979 19487.0242 19575.3306
ENERGY: 1600 0.1415 0.1407 0.0076 0.0000 -20120.3558 3528.3249 0.0000 0.0000 0.0000 -16591.7412 0.0000 -16591.7412 -16591.7412 0.0000 20004.8852 20077.3780 61744.8979 20004.8852 20077.3780
ENERGY: 2000 0.1124 0.1236 0.0038 0.0000 -20181.3310 3541.0487 0.0000 0.0000 0.0000 -16640.0425 0.0000 -16640.0425 -16640.0425 0.0000 20066.3715 20131.1961 61744.8979 20066.3715 20131.1961
TCL: Exiting due to exit command.
Info: NAMD 3.0.1 for Linux-x86_64-multicore
Info: Please visit http://www.ks.uiuc.edu/Research/namd/
Info: for updates, documentation, and support information.
Info: Please cite Phillips et al., J. Chem. Phys. 153:044130 (2020) doi:10.1063/5.0014475
Info: in all publications reporting results obtained with NAMD.
Info: Based on Charm++/Converse 80000 for multicore-linux-x86_64-gcc
Info: Built Mon Oct 14 11:11:06 CDT 2024 by dhardy on athine.ks.uiuc.edu
Info: 1 NAMD  3.0.1  Linux-x86_64-multicore  16    k013  z5358697
Info: Running on 16 processors, 1 nodes, 1 physical nodes.
Info: CPU topology information available.
Info: Charm++/Converse parallel runtime startup completed at 0.0101648 s
Info: 1043.45 MB of memory in use based on /proc/self/stat
Info: Configuration file is mobley_7690440_equil.namd
Info: Working in the current directory /srv/scratch/z5358697/prod_prep_9/7690440
TCL: Running 25000 steps at 30 kelvin.
TCL: Suspending until startup complete.
Info: SIMULATION PARAMETERS:
Info: TIMESTEP               2
Info: NUMBER OF STEPS        0
Info: STEPS PER CYCLE        10
Info: PERIODIC CELL BASIS 1  38.861 0 0
Info: PERIODIC CELL BASIS 2  0 40.459 0
Info: PERIODIC CELL BASIS 3  0 0 39.271
Info: PERIODIC CELL CENTER   0 0 0
Info: WRAPPING WATERS AROUND PERIODIC BOUNDARIES ON OUTPUT.
Info: WRAPPING ALL CLUSTERS AROUND PERIODIC BOUNDARIES ON OUTPUT.
Info: FIRST LDB TIMESTEP     50
Info: LAST LDB TIMESTEP     -1
Info: HOM BACKGROUND SCALING 1
Info: PME BACKGROUND SCALING 1
Info: MIN ATOMS PER PATCH    40
Info: EMPTY PATCH LOAD       40 ATOMS
Info: INITIAL TEMPERATURE    300
Info: CENTER OF MASS MOVING INITIALLY? NO
Info: DIELECTRIC             1
Info: EXCLUDE                SCALED ONE-FOUR
Info: 1-4 ELECTROSTATICS SCALED BY 0.833333
Info: MODIFIED 1-4 VDW PARAMETERS WILL BE USED
Info: DCD FILENAME           mobley_7690440_equil.dcd
Info: DCD FREQUENCY          5000
Info: DCD FIRST STEP         5000
Info: DCD FILE WILL CONTAIN UNIT CELL DATA
Info: XST FILENAME           mobley_7690440_equil.xst
Info: XST FREQUENCY          5000
Info: NO VELOCITY DCD OUTPUT
Info: NO FORCE DCD OUTPUT
Info: OUTPUT FILENAME        mobley_7690440_equil
Info: BINARY OUTPUT FILES WILL BE USED
Info: RESTART FILENAME       mobley_7690440_equil.restart
Info: RESTART FREQUENCY      5000
Info: BINARY RESTART FILES WILL BE USED
Info: CUTOFF                 9
Info: PAIRLIST DISTANCE      11
Info: PAIRLIST SHRINK RATE   0.01
Info: PAIRLIST GROW RATE     0.01
Info: PAIRLIST TRIGGER       0.3
Info: PAIRLISTS PER CYCLE    2
Info: PAIRLISTS ENABLED
Info: MARGIN                 8
Info: HYDROGEN GROUP CUTOFF  2.5
Info: PATCH DIMENSION        21.5
Info: ENERGY OUTPUT STEPS    5000
Info: ENERGY EVALUATION STEPS    5000
Info: OUTPUT ENERGY PRECISION 4
Info: CROSSTERM ENERGY INCLUDED IN DIHEDRAL
Info: TIMING OUTPUT STEPS    50000
Info: PRESSURE OUTPUT STEPS  5000
Info: LANGEVIN DYNAMICS ACTIVE
Info: LANGEVIN TEMPERATURE   30
Info: LANGEVIN USING BBK INTEGRATOR
Info: LANGEVIN DAMPING COEFFICIENT IS 1 INVERSE PS
Info: LANGEVIN DYNAMICS APPLIED TO HYDROGENS
Info: LANGEVIN PISTON PRESSURE CONTROL ACTIVE
Info:        TARGET PRESSURE IS 1.01325 BAR
Info:     OSCILLATION PERIOD IS 50 FS
Info:             DECAY TIME IS 25 FS
Info:     PISTON TEMPERATURE IS 300 K
Info:       PRESSURE CONTROL IS GROUP-BASED
Info:    INITIAL STRAIN RATE IS 0 0 0
Info:       CELL FLUCTUATION IS ISOTROPIC
Info: PARTICLE MESH EWALD (PME) ACTIVE
Info: PME TOLERANCE               1e-06
Info: PME EWALD COEFFICIENT       0.348832
Info: PME INTERPOLATION ORDER     4
Info: PME GRID DIMENSIONS         40 44 40
Info: PME MAXIMUM GRID SPACING    1
Info: FULL ELECTROSTATIC EVALUATION FREQUENCY      2
Info: USING VERLET I (r-RESPA) MTS SCHEME.
Info: C1 SPLITTING OF LONG RANGE ELECTROSTATICS
Info: PLACING ATOMS IN PATCHES BY HYDROGEN GROUPS
Info: RIGID BONDS TO HYDROGEN : ALL
Info:         ERROR TOLERANCE : 1e-08
Info:          MAX ITERATIONS : 100
Info: RIGID WATER USING SETTLE ALGORITHM
Info: RANDOM NUMBER SEED     1741407131
Info: USE HYDROGEN BONDS?    NO
Info: Using AMBER format force field!
Info: AMBER PARM FILE        mobley_7690440.prmtop
Info: COORDINATE PDB         mobley_7690440.pdb
Info: Exclusions will be read from PARM file!
Info: SCNB (VDW SCALING)     2
Info: USING ARITHMETIC MEAN TO COMBINE L-J SIGMA PARAMETERS
Info: BINARY COORDINATES     mobley_7690440_min.coor
Info: SUMMARY OF PARAMETERS:
Info: 5 BONDS
Info: 3 ANGLES
Info: 2 DIHEDRAL
Info: 0 IMPROPER
Info: 0 CROSSTERM
Info: 0 VDW
Info: 15 VDW_PAIRS
Info: 0 NBTHOLE_PAIRS
Info: STRUCTURE SUMMARY:
Info: 4369 ATOMS
Info: 4368 BONDS
Info: 14 ANGLES
Info: 7 DIHEDRALS
Info: 0 IMPROPERS
Info: 0 CROSSTERMS
Info: 4389 EXCLUSIONS
Info: 4365 RIGID BONDS
Info: 8742 DEGREES OF FREEDOM
Info: 1457 HYDROGEN GROUPS
Info: 4 ATOMS IN LARGEST HYDROGEN GROUP
Info: 1457 MIGRATION GROUPS
Info: 4 ATOMS IN LARGEST MIGRATION GROUP
Info: TOTAL MASS = 26271.4 amu
Info: TOTAL CHARGE = 0.000100009 e
Info: MASS DENSITY = 0.706549 g/cm^3
Info: ATOM DENSITY = 0.0707589 atoms/A^3
Info: ADDED 0 IMPLICIT EXCLUSIONS
Info: NONBONDED TABLE R-SQUARED SPACING: 0.0625
Info: NONBONDED TABLE SIZE: 705 POINTS
Info: REMOVING COM VELOCITY -0.0376495 0.0603407 -0.0789405
TCL: Running for 25000 steps
ETITLE: TS BOND ANGLE DIHED IMPRP ELECT VDW BOUNDARY MISC KINETIC TOTAL TEMP POTENTIAL TOTAL3 TEMPAVG PRESSURE GPRESSURE VOLUME PRESSAVG GPRESSAVG
ENERGY: 0 0.1124 0.1236 0.0038 0.0000 -20181.3310 3541.0487 0.0000 0.0000 2598.8610 -14041.1816 299.2007 -16640.0425 -14040.6835 299.2007 495.0547 531.0308 61744.8979 495.0547 531.0308
ENERGY: 5000 0.0568 0.3822 0.0334 0.0000 -20978.9072 3614.7392 0.0000 0.0000 266.7934 -17096.9021 30.7153 -17363.6955 -17095.9441 47.3250 -267.9814 -196.2223 42675.7394 0.0805 -0.0336
ENERGY: 10000 0.0465 0.3298 0.1860 0.0000 -21104.7654 3731.4670 0.0000 0.0000 266.2623 -17106.4739 30.6541 -17372.7362 -17105.6955 30.3045 372.5385 455.4224 42520.6596 1.9084 1.9065
ENERGY: 15000 0.1357 0.4194 0.0615 0.0000 -21115.2502 3722.2655 0.0000 0.0000 258.7445 -17133.6235 29.7886 -17392.3681 -17133.0173 30.2477 349.8345 406.5990 42388.8090 1.6457 1.5992
ENERGY: 20000 0.1058 0.5339 0.0184 0.0000 -21053.9381 3643.6020 0.0000 0.0000 259.1492 -17150.5289 29.8352 -17409.6781 -17149.5855 29.9465 -131.8089 -72.4734 42407.7246 5.0022 5.0773
ENERGY: 25000 0.0911 0.3313 0.0905 0.0000 -21012.9640 3595.6676 0.0000 0.0000 254.2746 -17162.5089 29.2740 -17416.7835 -17161.9282 30.2427 -463.2611 -412.6861 42563.0530 2.9808 2.9113
TCL: Running 25000 steps at 60 kelvin.
TCL: Setting parameter langevinTemp to 60
TCL: Running for 25000 steps
ETITLE: TS BOND ANGLE DIHED IMPRP ELECT VDW BOUNDARY MISC KINETIC TOTAL TEMP POTENTIAL TOTAL3 TEMPAVG PRESSURE GPRESSURE VOLUME PRESSAVG GPRESSAVG
ENERGY: 25000 0.0911 0.3313 0.0905 0.0000 -21012.9640 3595.6676 0.0000 0.0000 254.1392 -17162.6443 29.2584 -17416.7835 -17162.0356 29.2584 -473.1267 -412.7559 42563.0530 -473.1267 -412.7559
ENERGY: 30000 0.2377 0.6694 0.2238 0.0000 -20962.7577 3769.1064 0.0000 0.0000 523.3592 -16669.1611 60.2531 -17192.5204 -16668.0770 57.2784 1188.9934 1247.2780 42271.7364 4.1133 4.1680
ENERGY: 35000 0.1257 0.4722 0.1971 0.0000 -20992.6474 3761.4265 0.0000 0.0000 517.8124 -16712.6136 59.6145 -17230.4260 -16711.3086 59.7449 928.2372 984.0606 42494.4675 3.3063 3.0918
ENERGY: 40000 0.0591 0.4220 0.1247 0.0000 -20779.2017 3505.1788 0.0000 0.0000 520.0210 -16753.3961 59.8688 -17273.4171 -16751.9458 60.1125 -524.1726 -476.5394 42550.9215 7.4417 7.5349
ENERGY: 45000 0.3610 1.2439 0.3153 0.0000 -20852.1025 3559.8095 0.0000 0.0000 515.4060 -16774.9668 59.3375 -17290.3727 -16773.3559 60.0468 -187.3036 -165.6787 42352.9532 2.9860 2.9430
ENERGY: 50000 0.0985 0.5712 0.3822 0.0000 -21012.1448 3724.9211 0.0000 0.0000 521.9817 -16764.1900 60.0945 -17286.1718 -16763.2172 59.4583 729.4265 785.4634 42160.8395 0.3647 0.3506
TCL: Running 25000 steps at 90 kelvin.
TCL: Setting parameter langevinTemp to 90
TCL: Running for 25000 steps
ETITLE: TS BOND ANGLE DIHED IMPRP ELECT VDW BOUNDARY MISC KINETIC TOTAL TEMP POTENTIAL TOTAL3 TEMPAVG PRESSURE GPRESSURE VOLUME PRESSAVG GPRESSAVG
ENERGY: 50000 0.0985 0.5712 0.3822 0.0000 -21012.1448 3724.9211 0.0000 0.0000 521.7267 -16764.4450 60.0652 -17286.1718 -16763.3702 60.0652 736.1094 785.1824 42160.8395 736.1094 785.1824
ENERGY: 55000 0.1291 1.8624 0.0965 0.0000 -20441.2738 3412.9583 0.0000 0.0000 793.1841 -16233.0434 91.3174 -17026.2275 -16231.4573 87.5730 -445.3990 -375.8829 42859.9140 1.7781 1.3997
ENERGY: 60000 0.9770 1.4477 0.1063 0.0000 -20537.8988 3501.8190 0.0000 0.0000 778.1967 -16255.3521 89.5919 -17033.5488 -16252.7789 89.0905 45.4410 89.4723 42734.4521 4.3718 4.6643
ENERGY: 65000 0.3739 1.6500 0.2809 0.0000 -20551.6212 3474.2440 0.0000 0.0000 786.9495 -16288.1229 90.5996 -17075.0724 -16287.0921 89.9823 -243.4200 -148.4923 42702.5586 7.6804 7.2652
ENERGY: 70000 0.2558 1.0925 0.0590 0.0000 -20551.5602 3477.5225 0.0000 0.0000 778.1226 -16294.5078 89.5834 -17072.6304 -16293.3649 89.8442 -85.6227 -61.9611 42563.8802 2.9993 2.5931
ENERGY: 75000 0.4194 1.3563 0.0749 0.0000 -20306.7878 3230.7102 0.0000 0.0000 781.8020 -16292.4249 90.0070 -17074.2269 -16291.1258 90.1869 -1563.8518 -1530.0866 43154.1284 1.6262 1.5092
TCL: Running 25000 steps at 120 kelvin.
TCL: Setting parameter langevinTemp to 120
TCL: Running for 25000 steps
ETITLE: TS BOND ANGLE DIHED IMPRP ELECT VDW BOUNDARY MISC KINETIC TOTAL TEMP POTENTIAL TOTAL3 TEMPAVG PRESSURE GPRESSURE VOLUME PRESSAVG GPRESSAVG
ENERGY: 75000 0.4194 1.3563 0.0749 0.0000 -20306.7878 3230.7102 0.0000 0.0000 781.4153 -16292.8116 89.9625 -17074.2269 -16290.9182 89.9625 -1575.6070 -1531.1111 43154.1284 -1575.6070 -1531.1111
ENERGY: 80000 0.2226 1.5123 0.8078 0.0000 -20291.4709 3451.1878 0.0000 0.0000 1047.0527 -15790.6878 120.5447 -16837.7404 -15788.2479 116.6869 201.8079 243.2637 42892.4481 -4.0503 -4.4524
ENERGY: 85000 0.3517 1.2384 0.8922 0.0000 -20139.1825 3323.0612 0.0000 0.0000 1049.0303 -15764.6087 120.7724 -16813.6389 -15761.2009 119.9907 -447.3396 -434.3474 43038.7307 7.6068 7.6229
ENERGY: 90000 0.4352 2.1303 0.2723 0.0000 -20135.5401 3292.7630 0.0000 0.0000 1044.8518 -15795.0874 120.2913 -16839.9392 -15792.8571 120.1619 -674.0702 -616.9676 42897.5729 5.8938 6.1484
ENERGY: 95000 0.9272 2.2895 0.3927 0.0000 -20196.3382 3341.2393 0.0000 0.0000 1039.9966 -15811.4929 119.7324 -16851.4895 -15809.8641 120.1540 -381.6009 -326.4000 42855.5263 1.9115 1.4892
ENERGY: 100000 0.2994 1.1257 0.7417 0.0000 -20268.3510 3376.5834 0.0000 0.0000 1067.5536 -15822.0472 122.9049 -16889.6008 -15820.5803 120.1601 -193.3680 -164.2521 42721.1544 3.6035 4.0823
TCL: Running 25000 steps at 150 kelvin.
TCL: Setting parameter langevinTemp to 150
TCL: Running for 25000 steps
ETITLE: TS BOND ANGLE DIHED IMPRP ELECT VDW BOUNDARY MISC KINETIC TOTAL TEMP POTENTIAL TOTAL3 TEMPAVG PRESSURE GPRESSURE VOLUME PRESSAVG GPRESSAVG
ENERGY: 100000 0.2994 1.1257 0.7417 0.0000 -20268.3510 3376.5834 0.0000 0.0000 1067.0393 -15822.5614 122.8457 -16889.6008 -15820.2716 122.8457 -219.9496 -165.2453 42721.1544 -219.9496 -165.2453
ENERGY: 105000 0.1727 1.0020 0.4330 0.0000 -19822.3362 3287.2327 0.0000 0.0000 1309.8623 -15223.6336 150.8013 -16533.4959 -15218.7650 147.2887 160.1813 237.7282 42682.7202 4.1957 4.0883
ENERGY: 110000 0.2307 1.4365 1.7180 0.0000 -19756.6101 3185.7825 0.0000 0.0000 1306.0690 -15261.3735 150.3646 -16567.4425 -15258.2527 151.1733 -486.7851 -457.8899 42886.7910 6.5160 7.0575
ENERGY: 115000 0.3943 1.9083 0.3369 0.0000 -20003.4355 3400.1681 0.0000 0.0000 1317.7650 -15282.8629 151.7112 -16600.6279 -15280.7555 150.2316 633.3264 685.1964 42627.0318 4.5907 4.3882
ENERGY: 120000 1.0126 1.6662 0.2801 0.0000 -19838.6193 3248.6336 0.0000 0.0000 1348.3005 -15238.7263 155.2266 -16587.0268 -15234.9294 151.1885 -145.0365 -54.4315 42568.7895 5.9151 5.1430
ENERGY: 125000 0.3650 2.1920 0.0767 0.0000 -19872.3085 3259.0923 0.0000 0.0000 1317.7983 -15292.7842 151.7150 -16610.5825 -15289.0996 152.1556 -298.3171 -275.3571 43013.2859 4.1506 4.2271
TCL: Running 50000 steps at 180 kelvin.
TCL: Setting parameter langevinTemp to 180
TCL: Running for 50000 steps
ETITLE: TS BOND ANGLE DIHED IMPRP ELECT VDW BOUNDARY MISC KINETIC TOTAL TEMP POTENTIAL TOTAL3 TEMPAVG PRESSURE GPRESSURE VOLUME PRESSAVG GPRESSAVG
ENERGY: 125000 0.3650 2.1920 0.0767 0.0000 -19872.3085 3259.0923 0.0000 0.0000 1317.1621 -15293.4205 151.6418 -16610.5825 -15290.4607 151.6418 -327.5095 -275.9423 43013.2859 -327.5095 -275.9423
ENERGY: 135000 0.4829 1.7707 0.3842 0.0000 -19321.1978 3081.1183 0.0000 0.0000 1557.5319 -14679.9099 179.3150 -16237.4417 -14676.2456 180.2491 -239.2357 -165.3320 42886.4053 4.7399 5.1474
ENERGY: 145000 1.1855 2.5496 0.0854 0.0000 -19627.9904 3300.5277 0.0000 0.0000 1512.5225 -14811.1196 174.1331 -16323.6421 -14808.2169 178.0915 1078.8555 1079.6244 42103.3025 0.7716 1.1557
ENERGY: 155000 0.8338 3.1520 0.3931 0.0000 -19631.5573 3316.1002 0.0000 0.0000 1566.9534 -14744.1248 180.3996 -16311.0782 -14739.3971 179.8838 1020.0156 1104.8082 42264.9007 3.0967 2.9435
ENERGY: 165000 0.0947 1.5720 0.6080 0.0000 -19472.9882 3206.0517 0.0000 0.0000 1636.4526 -14628.2092 188.4009 -16264.6618 -14624.4151 180.2803 466.3858 523.1628 42908.0746 5.1918 5.1232
ENERGY: 175000 0.3155 1.4266 0.2045 0.0000 -19360.0562 3126.5443 0.0000 0.0000 1525.7529 -14705.8123 175.6563 -16231.5652 -14703.7109 180.2745 20.6176 133.7540 42670.6691 7.2493 7.0126
TCL: Running 50000 steps at 210 kelvin.
TCL: Setting parameter langevinTemp to 210
TCL: Running for 50000 steps
ETITLE: TS BOND ANGLE DIHED IMPRP ELECT VDW BOUNDARY MISC KINETIC TOTAL TEMP POTENTIAL TOTAL3 TEMPAVG PRESSURE GPRESSURE VOLUME PRESSAVG GPRESSAVG
ENERGY: 175000 0.3155 1.4266 0.2045 0.0000 -19360.0562 3126.5443 0.0000 0.0000 1524.9753 -14706.5899 175.5668 -16231.5652 -14703.7972 175.5668 59.4734 133.2791 42670.6691 59.4734 133.2791
ENERGY: 185000 0.6251 3.0220 0.9992 0.0000 -18487.1626 2891.7094 0.0000 0.0000 1835.4735 -13755.3334 211.3137 -15590.8068 -13751.4390 211.0195 401.6738 515.6271 42516.5384 0.0734 -1.0109
ENERGY: 195000 0.8277 1.7837 0.7147 0.0000 -18499.0548 2843.1368 0.0000 0.0000 1842.7409 -13809.8510 212.1504 -15652.5919 -13806.4482 210.2216 15.4753 78.3281 42653.3766 6.4449 5.8586
ENERGY: 205000 1.0188 2.4375 1.5260 0.0000 -18512.6011 2857.3175 0.0000 0.0000 1830.8156 -13819.4858 210.7775 -15650.3014 -13815.6675 210.0271 147.0930 182.4936 42606.2777 4.0492 3.5724
ENERGY: 215000 1.9599 2.9335 1.0223 0.0000 -18332.0515 2729.7276 0.0000 0.0000 1871.2961 -13725.1121 215.4379 -15596.4083 -13721.7306 211.2461 -554.5705 -420.8174 42620.8035 -0.0930 0.4946
ENERGY: 225000 1.3878 2.0521 0.1971 0.0000 -18378.3988 2767.3658 0.0000 0.0000 1801.2600 -13806.1361 207.3748 -15607.3960 -13801.8941 209.5938 -318.8731 -221.3997 42734.1391 0.0889 0.3132
TCL: Running 50000 steps at 240 kelvin.
TCL: Setting parameter langevinTemp to 240
TCL: Running for 50000 steps
ETITLE: TS BOND ANGLE DIHED IMPRP ELECT VDW BOUNDARY MISC KINETIC TOTAL TEMP POTENTIAL TOTAL3 TEMPAVG PRESSURE GPRESSURE VOLUME PRESSAVG GPRESSAVG
ENERGY: 225000 1.3878 2.0521 0.1971 0.0000 -18378.3988 2767.3658 0.0000 0.0000 1800.3471 -13807.0489 207.2697 -15607.3960 -13804.3898 207.2697 -302.9496 -221.1335 42734.1391 -302.9496 -221.1335
ENERGY: 235000 0.5664 3.5340 0.2678 0.0000 -17403.5372 2484.7042 0.0000 0.0000 2061.2087 -12853.2561 237.3021 -14914.4648 -12850.9857 240.1582 -218.1178 -130.8611 43039.7860 -4.8377 -5.6287
ENERGY: 245000 0.3680 2.1541 0.5306 0.0000 -17557.3986 2563.8391 0.0000 0.0000 2069.7024 -12920.8044 238.2799 -14990.5068 -12912.7544 239.9828 -217.9615 -168.0429 43873.0266 4.6637 4.8552
ENERGY: 255000 0.4529 3.2015 0.9525 0.0000 -17565.4509 2598.0197 0.0000 0.0000 2030.9258 -12931.8983 233.8157 -14962.8242 -12928.4890 238.7735 433.1026 467.8248 42537.3927 -1.0361 -1.2413
ENERGY: 265000 0.2561 6.0924 0.9237 0.0000 -17366.2603 2458.6659 0.0000 0.0000 2090.4891 -12809.8331 240.6731 -14900.3222 -12805.3606 239.2343 -278.2304 -217.7494 42468.0910 0.1153 0.5046
ENERGY: 275000 0.3634 3.2714 0.2587 0.0000 -17403.8994 2500.8155 0.0000 0.0000 2192.4254 -12706.7650 252.4087 -14899.1904 -12702.4322 240.1022 -22.2299 27.8676 43039.4309 5.8129 5.3567
TCL: Running 50000 steps at 270 kelvin.
TCL: Setting parameter langevinTemp to 270
TCL: Running for 50000 steps
ETITLE: TS BOND ANGLE DIHED IMPRP ELECT VDW BOUNDARY MISC KINETIC TOTAL TEMP POTENTIAL TOTAL3 TEMPAVG PRESSURE GPRESSURE VOLUME PRESSAVG GPRESSAVG
ENERGY: 275000 0.3634 3.2714 0.2587 0.0000 -17403.8994 2500.8155 0.0000 0.0000 2191.3767 -12707.8136 252.2880 -14899.1904 -12704.4952 252.2880 -52.5887 27.6341 43039.4309 -52.5887 27.6341
ENERGY: 285000 0.6324 2.0851 1.6510 0.0000 -16735.9967 2309.9604 0.0000 0.0000 2367.8275 -12053.8403 272.6024 -14421.6678 -12049.1979 269.0653 -75.7108 15.6648 43204.4554 6.8168 6.2836
ENERGY: 295000 0.9519 3.2032 0.6267 0.0000 -16898.3686 2442.8205 0.0000 0.0000 2355.7316 -12095.0348 271.2098 -14450.7664 -12090.6952 268.0763 248.9742 379.3162 44210.2408 2.0595 1.7240
ENERGY: 305000 0.3599 6.6533 1.8622 0.0000 -16812.9473 2420.9090 0.0000 0.0000 2311.1351 -12072.0277 266.0755 -14383.1629 -12067.0245 269.6988 501.8645 577.6706 43495.7645 3.5622 3.9006
ENERGY: 315000 1.1347 4.7936 1.0865 0.0000 -16716.6302 2296.2510 0.0000 0.0000 2365.7148 -12047.6497 272.3591 -14413.3645 -12041.6586 271.3831 -228.0690 -227.8962 43860.3236 6.8504 7.0798
ENERGY: 325000 1.2385 1.5819 1.1269 0.0000 -16747.5488 2369.2736 0.0000 0.0000 2345.4390 -12028.8888 270.0248 -14374.3279 -12024.6888 270.1888 400.3887 463.7036 43454.6501 1.1095 1.2647
TCL: Running 1000000 steps at 300 kelvin.
TCL: Setting parameter langevinTemp to 300
TCL: Running for 1000000 steps
ETITLE: TS BOND ANGLE DIHED IMPRP ELECT VDW BOUNDARY MISC KINETIC TOTAL TEMP POTENTIAL TOTAL3 TEMPAVG PRESSURE GPRESSURE VOLUME PRESSAVG GPRESSAVG
ENERGY: 325000 1.2385 1.5819 1.1269 0.0000 -16747.5488 2369.2736 0.0000 0.0000 2344.2678 -12030.0600 269.8900 -14374.3279 -12027.1188 269.8900 374.3999 463.0302 43454.6501 374.3999 463.0302
ENERGY: 525000 1.9709 3.4644 0.0928 0.0000 -15910.6840 2127.4026 0.0000 0.0000 2620.9005 -11156.8528 301.7381 -13777.7533 -11152.4297 299.0095 -143.1227 -35.0819 45042.5983 6.4435 5.7814
ENERGY: 725000 0.6108 4.3025 2.6551 0.0000 -15868.3730 2159.7985 0.0000 0.0000 2624.8761 -11076.1300 302.1958 -13701.0061 -11075.3264 303.7727 61.6733 131.7212 45438.9627 -0.3463 0.1819
ENERGY: 925000 3.8115 3.0877 1.4549 0.0000 -15844.7665 2074.7005 0.0000 0.0000 2599.5340 -11162.1779 299.2782 -13761.7118 -11156.7061 301.2472 -358.3282 -293.2697 44866.7200 1.4847 1.1906
ENERGY: 1125000 1.0340 1.5187 0.1330 0.0000 -15886.0606 2139.6154 0.0000 0.0000 2536.8655 -11206.8940 292.0633 -13743.7595 -11202.5973 299.7602 -61.6654 89.2332 44564.5260 -1.3623 -1.3218
ENERGY: 1325000 2.9981 2.7152 0.4669 0.0000 -15941.9800 2180.5556 0.0000 0.0000 2605.5992 -11149.6450 299.9765 -13755.2442 -11145.6835 300.2035 285.2147 298.3821 44945.4755 6.0374 6.8659
TCL: Exiting due to exit command.
