Info: SIMULATION PARAMETERS:
Info: TIMESTEP               2
Info: NUMBER OF STEPS        0
Info: STEPS PER CYCLE        10
Info: PERIODIC CELL BASIS 1  39.416 0 0
Info: PERIODIC CELL BASIS 2  0 40.343 0
Info: PERIODIC CELL BASIS 3  0 0 39.797
Info: PERIODIC CELL CENTER   0 0 0
Info: WRAPPING WATERS AROUND PERIODIC BOUNDARIES ON OUTPUT.
Info: WRAPPING ALL CLUSTERS AROUND PERIODIC BOUNDARIES ON OUTPUT.
Info: FIRST LDB TIMESTEP     50
Info: LAST LDB TIMESTEP     -1
Info: HOM BACKGROUND SCALING 1
Info: PME BACKGROUND SCALING 1
Info: MIN ATOMS PER PATCH    40
Info: EMPTY PATCH LOAD       40 ATOMS
Info: INITIAL TEMPERATURE    300
Info: CENTER OF MASS MOVING INITIALLY? NO
Info: DIELECTRIC             1
Info: EXCLUDE                SCALED ONE-FOUR
Info: 1-4 ELECTROSTATICS SCALED BY 0.833333
Info: MODIFIED 1-4 VDW PARAMETERS WILL BE USED
Info: DCD FILENAME           mobley_6309289_min.dcd
Info: DCD FREQUENCY          5000
Info: DCD FIRST STEP         5000
Info: DCD FILE WILL CONTAIN UNIT CELL DATA
Info: XST FILENAME           mobley_6309289_min.xst
Info: XST FREQUENCY          5000
Info: NO VELOCITY DCD OUTPUT
Info: NO FORCE DCD OUTPUT
Info: OUTPUT FILENAME        mobley_6309289_min
Info: BINARY OUTPUT FILES WILL BE USED
Info: RESTART FILENAME       mobley_6309289_min.restart
Info: RESTART FREQUENCY      5000
Info: BINARY RESTART FILES WILL BE USED
Info: CUTOFF                 9
Info: PAIRLIST DISTANCE      11
Info: PAIRLIST SHRINK RATE   0.01
Info: PAIRLIST GROW RATE     0.01
Info: PAIRLIST TRIGGER       0.3
Info: PAIRLISTS PER CYCLE    2
Info: PAIRLISTS ENABLED
Info: MARGIN                 8
Info: HYDROGEN GROUP CUTOFF  2.5
Info: PATCH DIMENSION        21.5
Info: ENERGY OUTPUT STEPS    5000
Info: ENERGY EVALUATION STEPS    5000
Info: OUTPUT ENERGY PRECISION 4
Info: CROSSTERM ENERGY INCLUDED IN DIHEDRAL
Info: TIMING OUTPUT STEPS    50000
Info: PRESSURE OUTPUT STEPS  5000
Info: LANGEVIN DYNAMICS ACTIVE
Info: LANGEVIN TEMPERATURE   300
Info: LANGEVIN USING BBK INTEGRATOR
Info: LANGEVIN DAMPING COEFFICIENT IS 1 INVERSE PS
Info: LANGEVIN DYNAMICS APPLIED TO HYDROGENS
Info: LANGEVIN PISTON PRESSURE CONTROL ACTIVE
Info:        TARGET PRESSURE IS 1.01325 BAR
Info:     OSCILLATION PERIOD IS 50 FS
Info:             DECAY TIME IS 25 FS
Info:     PISTON TEMPERATURE IS 300 K
Info:       PRESSURE CONTROL IS GROUP-BASED
Info:    INITIAL STRAIN RATE IS 0 0 0
Info:       CELL FLUCTUATION IS ISOTROPIC
Info: PARTICLE MESH EWALD (PME) ACTIVE
Info: PME TOLERANCE               1e-06
Info: PME EWALD COEFFICIENT       0.348832
Info: PME INTERPOLATION ORDER     4
Info: PME GRID DIMENSIONS         40 44 40
Info: PME MAXIMUM GRID SPACING    1
Info: FULL ELECTROSTATIC EVALUATION FREQUENCY      2
Info: USING VERLET I (r-RESPA) MTS SCHEME.
Info: C1 SPLITTING OF LONG RANGE ELECTROSTATICS
Info: PLACING ATOMS IN PATCHES BY HYDROGEN GROUPS
Info: RIGID BONDS TO HYDROGEN : ALL
Info:         ERROR TOLERANCE : 1e-08
Info:          MAX ITERATIONS : 100
Info: RIGID WATER USING SETTLE ALGORITHM
Info: RANDOM NUMBER SEED     1741382349
Info: USE HYDROGEN BONDS?    NO
Info: Using AMBER format force field!
Info: AMBER PARM FILE        mobley_6309289.prmtop
Info: COORDINATE PDB         mobley_6309289.pdb
Info: Exclusions will be read from PARM file!
Info: SCNB (VDW SCALING)     2
Info: USING ARITHMETIC MEAN TO COMBINE L-J SIGMA PARAMETERS
Info: SUMMARY OF PARAMETERS:
Info: 7 BONDS
Info: 9 ANGLES
Info:   9 HARMONIC
Info:   0 COSINE-BASED
Info: 10 DIHEDRAL
Info: 0 IMPROPER
Info: 0 CROSSTERM
Info: 0 VDW
Info: 28 VDW_PAIRS
Info: 0 NBTHOLE_PAIRS
Info: STRUCTURE SUMMARY:
Info: 4571 ATOMS
Info: 4571 BONDS
Info: 33 ANGLES
Info: 48 DIHEDRALS
Info: 0 IMPROPERS
Info: 0 CROSSTERMS
Info: 4649 EXCLUSIONS
Info: 4565 RIGID BONDS
Info: 9148 DEGREES OF FREEDOM
Info: 1524 HYDROGEN GROUPS
Info: 3 ATOMS IN LARGEST HYDROGEN GROUP
Info: 1524 MIGRATION GROUPS
Info: 3 ATOMS IN LARGEST MIGRATION GROUP
Info: TOTAL MASS = 27433.4 amu
Info: TOTAL CHARGE = 0.000299975 e
Info: MASS DENSITY = 0.719861 g/cm^3
Info: ATOM DENSITY = 0.0722304 atoms/A^3
Info: ADDED 0 IMPLICIT EXCLUSIONS
Info: NONBONDED TABLE R-SQUARED SPACING: 0.0625
Info: NONBONDED TABLE SIZE: 705 POINTS
Info: REMOVING COM VELOCITY 0.0556081 0.161619 0.027761
TCL: Minimizing for 2000 steps
ETITLE: TS BOND ANGLE DIHED IMPRP ELECT VDW BOUNDARY MISC KINETIC TOTAL TEMP POTENTIAL TOTAL3 TEMPAVG PRESSURE GPRESSURE VOLUME PRESSAVG GPRESSAVG
ENERGY: 0 0.0749 0.4452 0.3827 0.0000 -14246.1326 1639.4109 0.0000 0.0000 0.0000 -12605.8189 0.0000 -12605.8189 -12605.8189 0.0000 11158.8183 -15754.6817 63283.5851 11158.8183 -15754.6817
ENERGY: 400 1.3027 2.1958 0.4227 0.0000 -19183.0101 2789.3645 0.0000 0.0000 0.0000 -16389.7243 0.0000 -16389.7243 -16389.7243 0.0000 15739.7133 15529.5077 63283.5851 15739.7133 15529.5077
ENERGY: 800 0.9703 0.9052 0.4547 0.0000 -20228.4524 3272.6427 0.0000 0.0000 0.0000 -16953.4795 0.0000 -16953.4795 -16953.4795 0.0000 18138.6604 17899.5786 63283.5851 18138.6604 17899.5786
ENERGY: 1200 1.4784 1.4341 0.5410 0.0000 -20640.9671 3472.2610 0.0000 0.0000 0.0000 -17165.2526 0.0000 -17165.2526 -17165.2526 0.0000 19205.6909 18842.0758 63283.5851 19205.6909 18842.0758
ENERGY: 1600 0.3387 0.3527 0.4611 0.0000 -20850.7407 3560.9703 0.0000 0.0000 0.0000 -17288.6179 0.0000 -17288.6179 -17288.6179 0.0000 19696.8856 19465.6416 63283.5851 19696.8856 19465.6416
ENERGY: 2000 0.3220 0.3048 0.4597 0.0000 -21016.1759 3652.4243 0.0000 0.0000 0.0000 -17362.6651 0.0000 -17362.6651 -17362.6651 0.0000 20216.4162 19941.6086 63283.5851 20216.4162 19941.6086
TCL: Exiting due to exit command.
Info: NAMD 3.0.1 for Linux-x86_64-multicore
Info: Please visit http://www.ks.uiuc.edu/Research/namd/
Info: for updates, documentation, and support information.
Info: Please cite Phillips et al., J. Chem. Phys. 153:044130 (2020) doi:10.1063/5.0014475
Info: in all publications reporting results obtained with NAMD.
Info: Based on Charm++/Converse 80000 for multicore-linux-x86_64-gcc
Info: Built Mon Oct 14 11:11:06 CDT 2024 by dhardy on athine.ks.uiuc.edu
Info: 1 NAMD  3.0.1  Linux-x86_64-multicore  16    k015  z5358697
Info: Running on 16 processors, 1 nodes, 1 physical nodes.
Info: CPU topology information available.
Info: Charm++/Converse parallel runtime startup completed at 0.00930544 s
Info: 1043.45 MB of memory in use based on /proc/self/stat
Info: Configuration file is mobley_6309289_equil.namd
Info: Working in the current directory /srv/scratch/z5358697/prod_prep_8/6309289
TCL: Running 25000 steps at 30 kelvin.
TCL: Suspending until startup complete.
Info: SIMULATION PARAMETERS:
Info: TIMESTEP               2
Info: NUMBER OF STEPS        0
Info: STEPS PER CYCLE        10
Info: PERIODIC CELL BASIS 1  39.416 0 0
Info: PERIODIC CELL BASIS 2  0 40.343 0
Info: PERIODIC CELL BASIS 3  0 0 39.797
Info: PERIODIC CELL CENTER   0 0 0
Info: WRAPPING WATERS AROUND PERIODIC BOUNDARIES ON OUTPUT.
Info: WRAPPING ALL CLUSTERS AROUND PERIODIC BOUNDARIES ON OUTPUT.
Info: FIRST LDB TIMESTEP     50
Info: LAST LDB TIMESTEP     -1
Info: HOM BACKGROUND SCALING 1
Info: PME BACKGROUND SCALING 1
Info: MIN ATOMS PER PATCH    40
Info: EMPTY PATCH LOAD       40 ATOMS
Info: INITIAL TEMPERATURE    300
Info: CENTER OF MASS MOVING INITIALLY? NO
Info: DIELECTRIC             1
Info: EXCLUDE                SCALED ONE-FOUR
Info: 1-4 ELECTROSTATICS SCALED BY 0.833333
Info: MODIFIED 1-4 VDW PARAMETERS WILL BE USED
Info: DCD FILENAME           mobley_6309289_equil.dcd
Info: DCD FREQUENCY          5000
Info: DCD FIRST STEP         5000
Info: DCD FILE WILL CONTAIN UNIT CELL DATA
Info: XST FILENAME           mobley_6309289_equil.xst
Info: XST FREQUENCY          5000
Info: NO VELOCITY DCD OUTPUT
Info: NO FORCE DCD OUTPUT
Info: OUTPUT FILENAME        mobley_6309289_equil
Info: BINARY OUTPUT FILES WILL BE USED
Info: RESTART FILENAME       mobley_6309289_equil.restart
Info: RESTART FREQUENCY      5000
Info: BINARY RESTART FILES WILL BE USED
Info: CUTOFF                 9
Info: PAIRLIST DISTANCE      11
Info: PAIRLIST SHRINK RATE   0.01
Info: PAIRLIST GROW RATE     0.01
Info: PAIRLIST TRIGGER       0.3
Info: PAIRLISTS PER CYCLE    2
Info: PAIRLISTS ENABLED
Info: MARGIN                 8
Info: HYDROGEN GROUP CUTOFF  2.5
Info: PATCH DIMENSION        21.5
Info: ENERGY OUTPUT STEPS    5000
Info: ENERGY EVALUATION STEPS    5000
Info: OUTPUT ENERGY PRECISION 4
Info: CROSSTERM ENERGY INCLUDED IN DIHEDRAL
Info: TIMING OUTPUT STEPS    50000
Info: PRESSURE OUTPUT STEPS  5000
Info: LANGEVIN DYNAMICS ACTIVE
Info: LANGEVIN TEMPERATURE   30
Info: LANGEVIN USING BBK INTEGRATOR
Info: LANGEVIN DAMPING COEFFICIENT IS 1 INVERSE PS
Info: LANGEVIN DYNAMICS APPLIED TO HYDROGENS
Info: LANGEVIN PISTON PRESSURE CONTROL ACTIVE
Info:        TARGET PRESSURE IS 1.01325 BAR
Info:     OSCILLATION PERIOD IS 50 FS
Info:             DECAY TIME IS 25 FS
Info:     PISTON TEMPERATURE IS 300 K
Info:       PRESSURE CONTROL IS GROUP-BASED
Info:    INITIAL STRAIN RATE IS 0 0 0
Info:       CELL FLUCTUATION IS ISOTROPIC
Info: PARTICLE MESH EWALD (PME) ACTIVE
Info: PME TOLERANCE               1e-06
Info: PME EWALD COEFFICIENT       0.348832
Info: PME INTERPOLATION ORDER     4
Info: PME GRID DIMENSIONS         40 44 40
Info: PME MAXIMUM GRID SPACING    1
Info: FULL ELECTROSTATIC EVALUATION FREQUENCY      2
Info: USING VERLET I (r-RESPA) MTS SCHEME.
Info: C1 SPLITTING OF LONG RANGE ELECTROSTATICS
Info: PLACING ATOMS IN PATCHES BY HYDROGEN GROUPS
Info: RIGID BONDS TO HYDROGEN : ALL
Info:         ERROR TOLERANCE : 1e-08
Info:          MAX ITERATIONS : 100
Info: RIGID WATER USING SETTLE ALGORITHM
Info: RANDOM NUMBER SEED     1741382369
Info: USE HYDROGEN BONDS?    NO
Info: Using AMBER format force field!
Info: AMBER PARM FILE        mobley_6309289.prmtop
Info: COORDINATE PDB         mobley_6309289.pdb
Info: Exclusions will be read from PARM file!
Info: SCNB (VDW SCALING)     2
Info: USING ARITHMETIC MEAN TO COMBINE L-J SIGMA PARAMETERS
Info: BINARY COORDINATES     mobley_6309289_min.coor
Info: SUMMARY OF PARAMETERS:
Info: 7 BONDS
Info: 9 ANGLES
Info:   9 HARMONIC
Info:   0 COSINE-BASED
Info: 10 DIHEDRAL
Info: 0 IMPROPER
Info: 0 CROSSTERM
Info: 0 VDW
Info: 28 VDW_PAIRS
Info: 0 NBTHOLE_PAIRS
Info: STRUCTURE SUMMARY:
Info: 4571 ATOMS
Info: 4571 BONDS
Info: 33 ANGLES
Info: 48 DIHEDRALS
Info: 0 IMPROPERS
Info: 0 CROSSTERMS
Info: 4649 EXCLUSIONS
Info: 4565 RIGID BONDS
Info: 9148 DEGREES OF FREEDOM
Info: 1524 HYDROGEN GROUPS
Info: 3 ATOMS IN LARGEST HYDROGEN GROUP
Info: 1524 MIGRATION GROUPS
Info: 3 ATOMS IN LARGEST MIGRATION GROUP
Info: TOTAL MASS = 27433.4 amu
Info: TOTAL CHARGE = 0.000299975 e
Info: MASS DENSITY = 0.719861 g/cm^3
Info: ATOM DENSITY = 0.0722304 atoms/A^3
Info: ADDED 0 IMPLICIT EXCLUSIONS
Info: NONBONDED TABLE R-SQUARED SPACING: 0.0625
Info: NONBONDED TABLE SIZE: 705 POINTS
Info: REMOVING COM VELOCITY 0.0790706 -0.0837007 -0.00166535
TCL: Running for 25000 steps
ETITLE: TS BOND ANGLE DIHED IMPRP ELECT VDW BOUNDARY MISC KINETIC TOTAL TEMP POTENTIAL TOTAL3 TEMPAVG PRESSURE GPRESSURE VOLUME PRESSAVG GPRESSAVG
ENERGY: 0 0.3220 0.3048 0.4597 0.0000 -21016.1759 3652.4243 0.0000 0.0000 2765.8516 -14596.8135 304.2938 -17362.6651 -14596.2402 304.2938 325.4249 359.6346 63283.5851 325.4249 359.6346
ENERGY: 5000 0.6058 1.2373 0.6427 0.0000 -21876.8731 3744.3060 0.0000 0.0000 276.7488 -17853.3325 30.4474 -18130.0813 -17852.7581 47.7462 -242.1649 -202.3864 44041.6803 -0.9724 -0.9566
ENERGY: 10000 0.4025 0.8989 0.7316 0.0000 -22002.7527 3807.6837 0.0000 0.0000 272.6980 -17920.3380 30.0017 -18193.0360 -17919.4391 30.1732 -39.4482 27.3178 43944.4197 -3.3540 -3.2116
ENERGY: 15000 0.5359 1.1337 0.3507 0.0000 -21989.0975 3769.1076 0.0000 0.0000 278.8679 -17939.1017 30.6805 -18217.9696 -17938.5181 30.2109 -303.5016 -249.8580 43959.0965 3.0566 3.1700
ENERGY: 20000 0.4573 1.4901 0.6426 0.0000 -21911.9074 3675.5315 0.0000 0.0000 272.0346 -17961.7514 29.9287 -18233.7860 -17961.0190 30.2019 -857.7805 -798.5882 43996.0785 -0.6203 -0.5954
ENERGY: 25000 0.7484 1.2520 0.4901 0.0000 -21818.1495 3570.9999 0.0000 0.0000 276.8156 -17967.8434 30.4547 -18244.6590 -17967.0517 30.0126 -1473.6511 -1402.4849 44118.1791 2.2363 2.4281
TCL: Running 25000 steps at 60 kelvin.
TCL: Setting parameter langevinTemp to 60
TCL: Running for 25000 steps
ETITLE: TS BOND ANGLE DIHED IMPRP ELECT VDW BOUNDARY MISC KINETIC TOTAL TEMP POTENTIAL TOTAL3 TEMPAVG PRESSURE GPRESSURE VOLUME PRESSAVG GPRESSAVG
ENERGY: 25000 0.7484 1.2520 0.4901 0.0000 -21818.1495 3570.9999 0.0000 0.0000 276.6825 -17967.9765 30.4401 -18244.6590 -17967.3461 30.4401 -1451.5892 -1402.4631 44118.1791 -1451.5892 -1402.4631
ENERGY: 30000 0.1433 2.7407 0.7251 0.0000 -21755.0779 3746.2971 0.0000 0.0000 538.1757 -17466.9961 59.2091 -18005.1718 -17465.1968 57.0013 243.3877 316.6478 43791.2230 1.5449 1.7261
ENERGY: 35000 0.4998 1.7142 0.6471 0.0000 -21757.4649 3719.3874 0.0000 0.0000 545.6679 -17489.5485 60.0334 -18035.2164 -17487.9267 60.1616 -68.1449 -26.8206 44091.4101 0.7315 1.2206
ENERGY: 40000 0.7168 1.8280 0.5590 0.0000 -21631.8565 3587.1694 0.0000 0.0000 540.4835 -17501.0997 59.4630 -18041.5832 -17499.7106 59.9142 -807.8206 -734.7267 44247.2635 -4.2021 -4.3411
ENERGY: 45000 0.6090 1.5251 0.5098 0.0000 -21801.4355 3745.3084 0.0000 0.0000 544.9699 -17508.5133 59.9566 -18053.4832 -17507.2695 59.9879 -2.1257 61.8248 44002.1587 2.1966 2.1352
ENERGY: 50000 0.4825 1.7457 0.5408 0.0000 -21757.8679 3688.9713 0.0000 0.0000 548.1824 -17517.9452 60.3100 -18066.1276 -17516.3311 59.6761 -222.8186 -174.4719 43955.8373 5.8347 5.9367
TCL: Running 25000 steps at 90 kelvin.
TCL: Setting parameter langevinTemp to 90
TCL: Running for 25000 steps
ETITLE: TS BOND ANGLE DIHED IMPRP ELECT VDW BOUNDARY MISC KINETIC TOTAL TEMP POTENTIAL TOTAL3 TEMPAVG PRESSURE GPRESSURE VOLUME PRESSAVG GPRESSAVG
ENERGY: 50000 0.4825 1.7457 0.5408 0.0000 -21757.8679 3688.9713 0.0000 0.0000 547.9145 -17518.2131 60.2805 -18066.1276 -17517.0120 60.2805 -231.8647 -174.5629 43955.8373 -231.8647 -174.5629
ENERGY: 55000 0.6572 1.2426 0.4447 0.0000 -21386.8986 3597.3110 0.0000 0.0000 838.2463 -16948.9967 92.2223 -17787.2430 -16947.2770 86.9322 -143.2927 -84.4610 44238.4776 -0.4927 -0.9690
ENERGY: 60000 0.3707 3.0713 1.0305 0.0000 -21392.7867 3570.5283 0.0000 0.0000 815.0344 -17002.7514 89.6686 -17817.7858 -17000.5983 89.0944 -384.1897 -320.5309 44218.6587 1.6140 1.4670
ENERGY: 65000 1.5231 1.7331 0.3349 0.0000 -21496.5156 3663.8013 0.0000 0.0000 822.7067 -17006.4165 90.5126 -17829.1232 -17004.9283 90.4856 95.0216 176.9910 43896.7694 5.1323 4.9600
ENERGY: 70000 0.4034 1.7998 0.6721 0.0000 -21460.8284 3575.7460 0.0000 0.0000 818.3822 -17063.8250 90.0369 -17882.2072 -17061.6749 90.0246 -337.6673 -305.8992 43785.5809 4.2687 4.3955
ENERGY: 75000 0.5840 2.4836 0.7526 0.0000 -21578.9055 3696.9001 0.0000 0.0000 824.3900 -17053.7952 90.6978 -17878.1851 -17052.9693 88.9931 352.6325 410.0610 43706.9142 4.0446 3.8263
TCL: Running 25000 steps at 120 kelvin.
TCL: Setting parameter langevinTemp to 120
TCL: Running for 25000 steps
ETITLE: TS BOND ANGLE DIHED IMPRP ELECT VDW BOUNDARY MISC KINETIC TOTAL TEMP POTENTIAL TOTAL3 TEMPAVG PRESSURE GPRESSURE VOLUME PRESSAVG GPRESSAVG
ENERGY: 75000 0.5840 2.4836 0.7526 0.0000 -21578.9055 3696.9001 0.0000 0.0000 823.9825 -17054.2026 90.6530 -17878.1851 -17052.8782 90.6530 364.5528 409.7910 43706.9142 364.5528 409.7910
ENERGY: 80000 1.0924 2.4555 0.4845 0.0000 -21089.0305 3497.5350 0.0000 0.0000 1076.6478 -16510.8153 118.4508 -17587.4631 -16507.3540 116.4424 -120.4056 -67.1233 44102.0688 6.5880 6.9791
ENERGY: 85000 0.6228 3.3109 1.0713 0.0000 -21096.1716 3441.9337 0.0000 0.0000 1084.1994 -16565.0335 119.2816 -17649.2329 -16560.8689 120.0093 -589.4094 -488.6163 44161.6370 5.5815 6.0218
ENERGY: 90000 1.0768 2.4173 0.9297 0.0000 -21282.7847 3634.9331 0.0000 0.0000 1109.4373 -16533.9905 122.0582 -17643.4278 -16531.0857 120.5703 594.4729 620.6013 43907.6929 -0.5953 -0.7394
ENERGY: 95000 0.6244 3.2392 0.3449 0.0000 -21143.5690 3500.3125 0.0000 0.0000 1081.6820 -16557.3660 119.0046 -17639.0480 -16553.8927 120.7535 -219.4476 -158.7249 44071.1073 -1.0999 -1.0630
ENERGY: 100000 0.5753 2.3570 0.4149 0.0000 -21349.6708 3643.6981 0.0000 0.0000 1097.8002 -16604.8253 120.7779 -17702.6255 -16601.6452 120.0751 456.1713 501.8733 43826.6343 1.2788 1.1539
TCL: Running 25000 steps at 150 kelvin.
TCL: Setting parameter langevinTemp to 150
TCL: Running for 25000 steps
ETITLE: TS BOND ANGLE DIHED IMPRP ELECT VDW BOUNDARY MISC KINETIC TOTAL TEMP POTENTIAL TOTAL3 TEMPAVG PRESSURE GPRESSURE VOLUME PRESSAVG GPRESSAVG
ENERGY: 100000 0.5753 2.3570 0.4149 0.0000 -21349.6708 3643.6981 0.0000 0.0000 1097.2609 -16605.3646 120.7186 -17702.6255 -16603.1401 120.7186 450.5025 502.1320 43826.6343 450.5025 502.1320
ENERGY: 105000 0.7161 3.4671 0.9854 0.0000 -20988.5713 3669.1311 0.0000 0.0000 1396.2743 -15917.9973 153.6155 -17314.2716 -15914.2582 146.2575 1506.0421 1567.5147 44067.1198 1.2543 0.8745
ENERGY: 110000 0.3581 3.9486 0.5496 0.0000 -20689.9758 3316.3618 0.0000 0.0000 1343.2165 -16025.5412 147.7782 -17368.7577 -16022.9139 149.8649 -654.2564 -564.7151 44602.4463 -1.2975 -1.6181
ENERGY: 115000 1.6358 6.6751 0.6153 0.0000 -20810.6775 3468.1540 0.0000 0.0000 1360.0350 -15973.5622 149.6285 -17333.5972 -15970.8281 150.4556 184.6417 230.4776 44352.1539 3.3225 2.9308
ENERGY: 120000 0.6225 2.9362 0.6376 0.0000 -20780.9636 3396.6988 0.0000 0.0000 1399.2824 -15980.7861 153.9464 -17380.0686 -15978.5785 151.3596 -212.3215 -170.0405 44414.5127 1.3810 1.4746
ENERGY: 125000 0.5446 4.3869 1.2320 0.0000 -20752.6629 3327.3542 0.0000 0.0000 1352.7430 -16066.4021 148.8262 -17419.1451 -16063.1541 149.3989 -730.8676 -656.9635 44547.7426 7.6623 7.4763
TCL: Running 50000 steps at 180 kelvin.
TCL: Setting parameter langevinTemp to 180
TCL: Running for 50000 steps
ETITLE: TS BOND ANGLE DIHED IMPRP ELECT VDW BOUNDARY MISC KINETIC TOTAL TEMP POTENTIAL TOTAL3 TEMPAVG PRESSURE GPRESSURE VOLUME PRESSAVG GPRESSAVG
ENERGY: 125000 0.5446 4.3869 1.2320 0.0000 -20752.6629 3327.3542 0.0000 0.0000 1352.0740 -16067.0711 148.7526 -17419.1451 -16063.5588 148.7526 -700.0453 -657.1749 44547.7426 -700.0453 -657.1749
ENERGY: 135000 0.5354 4.6198 0.2647 0.0000 -20320.1673 3272.4851 0.0000 0.0000 1601.3074 -15440.9550 176.1728 -17042.2623 -15437.5475 179.5707 -88.6167 2.5908 44486.3476 1.9726 1.8133
ENERGY: 145000 0.6214 4.0273 0.7159 0.0000 -20328.0650 3257.8931 0.0000 0.0000 1628.7341 -15436.0731 179.1903 -17064.8072 -15431.5708 179.4299 -331.5429 -259.7921 44772.1808 3.4953 2.8020
ENERGY: 155000 0.4899 5.3098 0.6734 0.0000 -20169.9090 3177.9278 0.0000 0.0000 1644.3024 -15341.2056 180.9031 -16985.5080 -15338.2248 180.7021 -643.7195 -594.1016 45280.2874 -0.3031 -0.2928
ENERGY: 165000 2.4224 5.4983 1.0747 0.0000 -20344.7526 3281.4535 0.0000 0.0000 1629.8972 -15424.4065 179.3182 -17054.3037 -15420.1084 177.7998 -175.2368 -130.4620 44935.7268 2.1499 2.4795
ENERGY: 175000 0.8331 4.3200 1.4425 0.0000 -20269.3683 3231.0355 0.0000 0.0000 1663.0977 -15368.6395 182.9709 -17031.7371 -15364.4808 180.2109 -286.3209 -254.4997 44778.6347 3.4693 4.1919
TCL: Running 50000 steps at 210 kelvin.
TCL: Setting parameter langevinTemp to 210
TCL: Running for 50000 steps
ETITLE: TS BOND ANGLE DIHED IMPRP ELECT VDW BOUNDARY MISC KINETIC TOTAL TEMP POTENTIAL TOTAL3 TEMPAVG PRESSURE GPRESSURE VOLUME PRESSAVG GPRESSAVG
ENERGY: 175000 0.8331 4.3200 1.4425 0.0000 -20269.3683 3231.0355 0.0000 0.0000 1662.3114 -15369.4257 182.8844 -17031.7371 -15366.3055 182.8844 -307.6744 -254.4125 44778.6347 -307.6744 -254.4125
ENERGY: 185000 1.2506 3.8179 0.8440 0.0000 -19296.9087 2878.0218 0.0000 0.0000 1904.2136 -14508.7609 209.4980 -16412.9744 -14503.4860 209.0193 -715.1789 -667.1265 45048.9842 7.1370 7.2514
ENERGY: 195000 1.9370 6.1176 0.3714 0.0000 -19304.2935 2968.8104 0.0000 0.0000 1888.6035 -14438.4537 207.7806 -16327.0571 -14435.8243 211.4582 127.4848 209.2869 44360.4979 -2.9794 -2.5850
ENERGY: 205000 2.1202 3.3225 0.8370 0.0000 -19144.1197 2902.3409 0.0000 0.0000 1931.2754 -14304.2236 212.4753 -16235.4991 -14301.7107 210.9010 -107.8053 -25.4037 44622.7501 2.7301 2.7777
ENERGY: 215000 1.0086 6.2589 1.7327 0.0000 -19285.6921 2954.2202 0.0000 0.0000 1925.1290 -14397.3428 211.7991 -16322.4718 -14391.0944 211.1660 -173.2324 1.8500 44652.0878 5.2396 4.7135
ENERGY: 225000 1.3850 7.1283 0.5251 0.0000 -19393.9342 2999.0547 0.0000 0.0000 1887.4766 -14498.3645 207.6566 -16385.8411 -14493.5766 209.2575 225.4896 280.3743 44200.4712 -0.9229 -1.0388
TCL: Running 50000 steps at 240 kelvin.
TCL: Setting parameter langevinTemp to 240
TCL: Running for 50000 steps
ETITLE: TS BOND ANGLE DIHED IMPRP ELECT VDW BOUNDARY MISC KINETIC TOTAL TEMP POTENTIAL TOTAL3 TEMPAVG PRESSURE GPRESSURE VOLUME PRESSAVG GPRESSAVG
ENERGY: 225000 1.3850 7.1283 0.5251 0.0000 -19393.9342 2999.0547 0.0000 0.0000 1886.4960 -14499.3451 207.5487 -16385.8411 -14496.0281 207.5487 199.1988 281.8824 44200.4712 199.1988 281.8824
ENERGY: 235000 3.9958 5.7635 0.5763 0.0000 -18256.7759 2609.9223 0.0000 0.0000 2157.2609 -13479.2570 237.3378 -15636.5179 -13476.5787 238.6248 -490.0548 -438.7851 45368.4319 -0.6497 -0.7989
ENERGY: 245000 2.6620 6.0782 0.5356 0.0000 -18196.9010 2581.6829 0.0000 0.0000 2196.2083 -13409.7340 241.6227 -15605.9423 -13406.3602 240.8818 -656.2885 -531.5581 45601.3710 7.2539 7.3714
ENERGY: 255000 1.4022 9.0850 0.9681 0.0000 -18510.2484 2835.3277 0.0000 0.0000 2182.0228 -13481.4425 240.0621 -15663.4653 -13477.4844 239.1176 725.1447 764.6828 44906.1753 4.4074 4.1336
ENERGY: 265000 0.6394 4.8700 0.3165 0.0000 -18385.3746 2748.7894 0.0000 0.0000 2176.5360 -13454.2234 239.4584 -15630.7594 -13447.5780 239.7591 574.0660 654.4412 44710.2850 0.6665 1.5421
ENERGY: 275000 1.7150 4.3684 0.5816 0.0000 -18430.6091 2795.3663 0.0000 0.0000 2148.6370 -13479.9408 236.3890 -15628.5778 -13475.4862 240.2530 655.0050 730.0310 44825.2341 6.3433 5.7450
TCL: Running 50000 steps at 270 kelvin.
TCL: Setting parameter langevinTemp to 270
TCL: Running for 50000 steps
ETITLE: TS BOND ANGLE DIHED IMPRP ELECT VDW BOUNDARY MISC KINETIC TOTAL TEMP POTENTIAL TOTAL3 TEMPAVG PRESSURE GPRESSURE VOLUME PRESSAVG GPRESSAVG
ENERGY: 275000 1.7150 4.3684 0.5816 0.0000 -18430.6091 2795.3663 0.0000 0.0000 2147.5405 -13481.0373 236.2684 -15628.5778 -13477.3522 236.2684 639.7696 728.0771 44825.2341 639.7696 728.0771
ENERGY: 285000 1.7438 5.7432 0.5449 0.0000 -17516.4708 2470.6083 0.0000 0.0000 2496.4605 -12541.3701 274.6559 -15037.8306 -12535.0275 269.9645 -56.4581 34.9768 45822.2495 1.2126 1.0387
ENERGY: 295000 1.3052 3.8070 0.5872 0.0000 -17509.9240 2424.8774 0.0000 0.0000 2478.5890 -12600.7582 272.6897 -15079.3472 -12597.9047 267.9277 -146.7931 -119.1761 45786.0765 6.6398 5.9872
ENERGY: 305000 0.6474 8.9789 2.0189 0.0000 -17244.6799 2281.3746 0.0000 0.0000 2395.2315 -12556.4287 263.5189 -14951.6602 -12549.8746 270.5313 -908.3549 -766.5274 45975.3167 2.8284 2.9016
ENERGY: 315000 1.2471 8.6279 1.5229 0.0000 -17475.0366 2407.3279 0.0000 0.0000 2443.0026 -12613.3081 268.7746 -15056.3108 -12604.4912 270.3509 -290.4585 -186.1203 45481.7708 2.4350 2.5577
ENERGY: 325000 0.9603 9.1628 0.4804 0.0000 -17323.3440 2420.7376 0.0000 0.0000 2439.5509 -12452.4520 268.3948 -14892.0029 -12446.9881 270.2755 -136.5354 -31.5709 46233.3448 2.1170 2.1830
TCL: Running 1000000 steps at 300 kelvin.
TCL: Setting parameter langevinTemp to 300
TCL: Running for 1000000 steps
ETITLE: TS BOND ANGLE DIHED IMPRP ELECT VDW BOUNDARY MISC KINETIC TOTAL TEMP POTENTIAL TOTAL3 TEMPAVG PRESSURE GPRESSURE VOLUME PRESSAVG GPRESSAVG
ENERGY: 325000 0.9603 9.1628 0.4804 0.0000 -17323.3440 2420.7376 0.0000 0.0000 2438.3656 -12453.6373 268.2644 -14892.0029 -12450.2661 268.2644 -115.8474 -31.5927 46233.3448 -115.8474 -31.5927
ENERGY: 525000 1.9958 11.2803 1.3715 0.0000 -16514.9463 2205.2423 0.0000 0.0000 2698.2405 -11596.8159 296.8554 -14295.0564 -11590.9863 300.3280 -134.7010 -85.3574 47285.1801 2.5535 2.9606
ENERGY: 725000 0.6385 10.8686 0.8343 0.0000 -16482.8487 2149.9797 0.0000 0.0000 2747.5361 -11572.9914 302.2788 -14320.5276 -11567.7618 300.5992 -424.5566 -344.9873 47434.3600 2.8926 2.1843
ENERGY: 925000 0.8881 5.9354 0.5807 0.0000 -16472.2130 2113.8814 0.0000 0.0000 2713.8425 -11637.0849 298.5719 -14350.9274 -11634.4186 299.1982 -559.7849 -463.6297 46826.8642 4.1940 3.7432
ENERGY: 1125000 1.5767 6.6349 1.3913 0.0000 -16769.7390 2340.0560 0.0000 0.0000 2662.5693 -11757.5109 292.9309 -14420.0802 -11750.8666 301.1321 176.1213 283.5749 47267.6092 3.7213 3.4021
ENERGY: 1325000 2.4212 5.6903 1.0188 0.0000 -16559.7078 2216.7753 0.0000 0.0000 2738.9647 -11594.8374 301.3358 -14333.8022 -11586.6078 296.8545 117.2717 203.1165 46764.6227 1.1837 1.0782
TCL: Exiting due to exit command.
