Info: SIMULATION PARAMETERS:
Info: TIMESTEP               2
Info: NUMBER OF STEPS        0
Info: STEPS PER CYCLE        10
Info: PERIODIC CELL BASIS 1  72.4651 0 0
Info: PERIODIC CELL BASIS 2  0 72.4651 0
Info: PERIODIC CELL BASIS 3  0 0 72.4651
Info: PERIODIC CELL CENTER   36.272 36.272 36.272
Info: WRAPPING ALL CLUSTERS AROUND PERIODIC BOUNDARIES ON OUTPUT.
Info: FIRST LDB TIMESTEP     50
Info: LAST LDB TIMESTEP     -1
Info: HOM BACKGROUND SCALING 1
Info: PME BACKGROUND SCALING 1
Info: MIN ATOMS PER PATCH    40
Info: EMPTY PATCH LOAD       40 ATOMS
Info: VELOCITY FILE          mobley_9257453_equilibrated.vel
Info: CENTER OF MASS MOVING INITIALLY? NO
Info: DIELECTRIC             1
Info: EXCLUDE                SCALED ONE-FOUR
Info: 1-4 ELECTROSTATICS SCALED BY 1
Info: MODIFIED 1-4 VDW PARAMETERS WILL BE USED
Info: DCD FILENAME           mobley_9257453_backwards.dcd
Info: DCD FREQUENCY          500
Info: DCD FIRST STEP         500
Info: DCD FILE WILL CONTAIN UNIT CELL DATA
Info: NO EXTENDED SYSTEM TRAJECTORY OUTPUT
Info: NO VELOCITY DCD OUTPUT
Info: NO FORCE DCD OUTPUT
Info: OUTPUT FILENAME        mobley_9257453_backwards
Info: BINARY OUTPUT FILES WILL BE USED
Info: NO RESTART FILE
Info: SWITCHING ACTIVE
Info: SWITCHING ON           10
Info: SWITCHING OFF          12
Info: PAIRLIST DISTANCE      14
Info: PAIRLIST SHRINK RATE   0.01
Info: PAIRLIST GROW RATE     0.01
Info: PAIRLIST TRIGGER       0.3
Info: PAIRLISTS PER CYCLE    2
Info: PAIRLISTS ENABLED
Info: MARGIN                 8
Info: HYDROGEN GROUP CUTOFF  2.5
Info: PATCH DIMENSION        24.5
Info: ENERGY OUTPUT STEPS    500
Info: ENERGY EVALUATION STEPS    500
Info: OUTPUT ENERGY PRECISION 4
Info: CROSSTERM ENERGY INCLUDED IN DIHEDRAL
Info: TIMING OUTPUT STEPS    500
Info: PRESSURE OUTPUT STEPS  500
Info: ALCHEMICAL FEP ON
Info: FEP CURRENT LAMBDA VALUE     1
Info: FEP COMPARISON LAMBDA VALUE  0.9375
Info: FEP INTRA-ALCHEMICAL NON-BONDED INTERACTIONS WILL BE DECOUPLED
Info: FEP INTRA-ALCHEMICAL BONDED INTERACTIONS WILL BE RETAINED
Info: FEP VDW SHIFTING COEFFICIENT 6
Info: FEP ELEC. ACTIVE FOR ANNIHILATED PARTICLES BETWEEN LAMBDA = 0 AND LAMBDA = 0.5
Info: FEP ELEC. ACTIVE FOR EXNIHILATED PARTICLES BETWEEN LAMBDA = 0.5 AND LAMBDA = 1
Info: FEP VDW ACTIVE FOR ANNIHILATED PARTICLES BETWEEN LAMBDA = 0 AND LAMBDA = 1
Info: FEP VDW ACTIVE FOR EXNIHILATED PARTICLES BETWEEN LAMBDA = 0 AND LAMBDA = 1
Info: FEP BOND ACTIVE FOR ANNIHILATED PARTICLES BETWEEN LAMBDA = 1 AND LAMBDA = 1
Info: FEP BOND ACTIVE FOR EXNIHILATED PARTICLES BETWEEN LAMBDA = 0 AND LAMBDA = 0
Info: LANGEVIN DYNAMICS ACTIVE
Info: LANGEVIN TEMPERATURE   298
Info: LANGEVIN USING BBK INTEGRATOR
Info: LANGEVIN DAMPING COEFFICIENT IS 1 INVERSE PS
Info: LANGEVIN DYNAMICS NOT APPLIED TO HYDROGENS
Info: LANGEVIN PISTON PRESSURE CONTROL ACTIVE
Info:        TARGET PRESSURE IS 1.01325 BAR
Info:     OSCILLATION PERIOD IS 100 FS
Info:             DECAY TIME IS 50 FS
Info:     PISTON TEMPERATURE IS 298 K
Info:       PRESSURE CONTROL IS GROUP-BASED
Info:    INITIAL STRAIN RATE IS 4.75815e-05 4.75815e-05 4.75815e-05
Info:       CELL FLUCTUATION IS ISOTROPIC
Info: PARTICLE MESH EWALD (PME) ACTIVE
Info: PME TOLERANCE               1e-05
Info: PME EWALD COEFFICIENT       0.226635
Info: PME INTERPOLATION ORDER     4
Info: PME GRID DIMENSIONS         80 80 80
Info: PME MAXIMUM GRID SPACING    1
Info: FULL ELECTROSTATIC EVALUATION FREQUENCY      1
Info: USING VERLET I (r-RESPA) MTS SCHEME.
Info: C1 SPLITTING OF LONG RANGE ELECTROSTATICS
Info: PLACING ATOMS IN PATCHES BY HYDROGEN GROUPS
Info: RIGID BONDS TO HYDROGEN : ALL
Info:         ERROR TOLERANCE : 1e-08
Info:          MAX ITERATIONS : 100
Info: RIGID WATER USING SETTLE ALGORITHM
Info: RANDOM NUMBER SEED     1740653547
Info: USE HYDROGEN BONDS?    NO
Info: COORDINATE PDB         mobley_9257453.pdb
Info: STRUCTURE FILE         mobley_9257453.psf
Info: PARAMETER file: CHARMM format!
Info: PARAMETERS             ../common/par_all27_prot_lipid.inp
Info: PARAMETERS             mobley_9257453.prm
Info: USING ARITHMETIC MEAN TO COMBINE L-J SIGMA PARAMETERS
Info: BINARY COORDINATES     mobley_9257453_equilibrated.coor
Info: SUMMARY OF PARAMETERS:
Info: 185 BONDS
Info: 452 ANGLES
Info: 575 DIHEDRAL
Info: 49 IMPROPER
Info: 6 CROSSTERM
Info: 124 VDW
Info: 0 VDW_PAIRS
Info: 0 NBTHOLE_PAIRS
Info: To read alchdata from file: mobley_9257453.pdb
Info: To read alchflag data from column: 5
Info: STRUCTURE SUMMARY:
Info: 4561 ATOMS
Info: 3045 BONDS
Info: 1535 ANGLES
Info: 26 DIHEDRALS
Info: 6 IMPROPERS
Info: 0 CROSSTERMS
Info: 0 EXCLUSIONS
Info: 4552 RIGID BONDS
Info: ALCH: 0 ATOMS TO DISAPPEAR IN FINAL STATE
Info: ALCH: 13 ATOMS TO APPEAR IN FINAL STATE
Info: 9131 DEGREES OF FREEDOM
Info: 1525 HYDROGEN GROUPS
Info: 3 ATOMS IN LARGEST HYDROGEN GROUP
Info: 1525 MIGRATION GROUPS
Info: 3 ATOMS IN LARGEST MIGRATION GROUP
Info: TOTAL MASS = 27474.3 amu
Info: TOTAL CHARGE = 9.31323e-09 e
Info: MASS DENSITY = 0.119895 g/cm^3
Info: ATOM DENSITY = 0.011986 atoms/A^3
Info: ADDED 4603 IMPLICIT EXCLUSIONS
Info: NONBONDED TABLE R-SQUARED SPACING: 0.0625
Info: NONBONDED TABLE SIZE: 769 POINTS
Info: REMOVING COM VELOCITY -0.0478108 -0.0433498 -0.0378591
TCL: Running for 5000 steps
ETITLE: TS BOND ANGLE DIHED IMPRP ELECT VDW BOUNDARY MISC KINETIC TOTAL TEMP POTENTIAL TOTAL3 TEMPAVG PRESSURE GPRESSURE VOLUME PRESSAVG GPRESSAVG
ENERGY: 0 2.7167 3.1913 2.9697 0.1558 -15586.5193 1554.4821 0.0000 0.0000 2696.3500 -11326.6538 297.1997 -14023.0038 -11321.3864 297.1997 -69.8486 -69.8486 380528.2278 -69.8486 -69.8486
ENERGY: 1000 6.6314 5.5951 0.8198 0.0924 -15806.8707 1672.4836 0.0000 0.0000 2702.8137 -11418.4347 297.9121 -14121.2484 -11413.2456 296.1683 3.0607 2.5778 375299.9712 2.0188 2.0697
ENERGY: 2000 2.8498 4.6396 1.7113 0.1473 -15806.0436 1711.0075 0.0000 0.0000 2704.6698 -11381.0183 298.1167 -14085.6880 -11375.4412 295.6417 13.2954 13.1698 359127.4664 -1.5092 -1.4927
ENERGY: 3000 2.3980 1.3064 2.6648 0.0766 -15642.8093 1559.3257 0.0000 0.0000 2658.3041 -11418.7336 293.0061 -14077.0377 -11413.1000 294.5891 -75.7819 -76.3685 360695.4319 -0.6213 -0.6145
ENERGY: 4000 1.1521 4.1231 2.9542 0.1913 -15807.5467 1729.5297 0.0000 0.0000 2698.7918 -11370.8044 297.4688 -14069.5962 -11366.5977 296.2767 55.8541 57.3183 349513.2239 0.8492 0.8482
ENERGY: 5000 2.8237 1.5430 1.4296 0.1158 -15637.9709 1604.2784 0.0000 0.0000 2700.2565 -11327.5237 297.6303 -14027.7803 -11322.0128 297.5228 2.3486 1.9443 356388.6826 0.6668 0.6077
TCL: Running FEP window   2: Lambda1 0.9375 Lambda2 0.875  [dLambda -0.0625]
TCL: Setting parameter firsttimestep to 0
TCL: Setting parameter alchLambda to 0.9375
Info: NONBONDED TABLE R-SQUARED SPACING: 0.0625
Info: NONBONDED TABLE SIZE: 769 POINTS
TCL: Setting parameter alchLambda2 to 0.875
Info: NONBONDED TABLE R-SQUARED SPACING: 0.0625
Info: NONBONDED TABLE SIZE: 769 POINTS
TCL: Running for 5000 steps
ETITLE: TS BOND ANGLE DIHED IMPRP ELECT VDW BOUNDARY MISC KINETIC TOTAL TEMP POTENTIAL TOTAL3 TEMPAVG PRESSURE GPRESSURE VOLUME PRESSAVG GPRESSAVG
ENERGY: 0 2.8237 1.5430 1.4296 0.1158 -15633.3203 1602.2660 0.0000 0.0000 2700.1734 -11324.9687 297.6211 -14025.1421 -11320.0116 297.6211 -1.4348 -1.4348 356388.6826 -1.4348 -1.4348
ENERGY: 1000 2.1577 2.0872 4.0845 0.2772 -15751.8643 1686.2516 0.0000 0.0000 2656.7518 -11400.2542 292.8350 -14057.0061 -11394.1183 296.1475 -15.9450 -15.9213 362816.1193 3.6311 3.6551
ENERGY: 2000 4.0985 1.5562 4.9866 0.1304 -15753.2387 1661.7702 0.0000 0.0000 2669.2582 -11411.4385 294.2135 -14080.6967 -11407.5968 293.7028 -10.4762 -10.0642 354013.8580 2.9203 2.8770
ENERGY: 3000 3.5335 1.3030 4.4969 0.3340 -15764.9441 1603.1649 0.0000 0.0000 2657.8677 -11494.2441 292.9580 -14152.1118 -11489.3203 293.0987 -46.1359 -44.5932 342463.6858 1.0364 1.0489
ENERGY: 4000 1.5287 1.7934 4.2250 0.3472 -15818.1316 1678.8624 0.0000 0.0000 2685.2954 -11446.0795 295.9812 -14131.3749 -11441.6548 295.9885 -3.9381 -4.1506 338900.5056 2.2980 2.3192
ENERGY: 5000 3.5703 1.7586 2.6413 0.2975 -15840.7002 1737.6522 0.0000 0.0000 2697.2535 -11397.5268 297.2992 -14094.7803 -11391.4808 294.5793 15.2385 14.6075 338709.5670 3.8317 3.8587
TCL: Running FEP window   3: Lambda1 0.875  Lambda2 0.8125 [dLambda -0.0625]
TCL: Setting parameter firsttimestep to 0
TCL: Setting parameter alchLambda to 0.875
Info: NONBONDED TABLE R-SQUARED SPACING: 0.0625
Info: NONBONDED TABLE SIZE: 769 POINTS
TCL: Setting parameter alchLambda2 to 0.8125
Info: NONBONDED TABLE R-SQUARED SPACING: 0.0625
Info: NONBONDED TABLE SIZE: 769 POINTS
TCL: Running for 5000 steps
ETITLE: TS BOND ANGLE DIHED IMPRP ELECT VDW BOUNDARY MISC KINETIC TOTAL TEMP POTENTIAL TOTAL3 TEMPAVG PRESSURE GPRESSURE VOLUME PRESSAVG GPRESSAVG
ENERGY: 0 3.5703 1.7586 2.6413 0.2975 -15835.6421 1735.5592 0.0000 0.0000 2697.1684 -11394.6468 297.2899 -14091.8152 -11390.0158 297.2899 11.1058 11.1058 338709.5670 11.1058 11.1058
ENERGY: 1000 4.2245 3.9466 2.1906 0.1615 -15740.1346 1688.2354 0.0000 0.0000 2713.6151 -11327.7610 299.1027 -14041.3761 -11323.5447 299.0128 25.7460 24.8503 328812.3227 0.8632 0.8883
ENERGY: 2000 2.3653 5.8215 1.5507 0.0864 -15605.3802 1643.7836 0.0000 0.0000 2723.3649 -11228.4077 300.1773 -13951.7727 -11223.0417 298.0092 -1.0193 -1.0564 328918.9040 2.6198 2.7202
ENERGY: 3000 5.0930 1.0343 4.9583 0.3250 -15734.8425 1620.6672 0.0000 0.0000 2727.0045 -11375.7602 300.5785 -14102.7647 -11370.3390 299.1262 -24.5886 -23.7690 336900.0589 1.9686 1.9924
ENERGY: 4000 5.2375 3.5000 2.0867 0.1830 -15728.4789 1675.2291 0.0000 0.0000 2706.3213 -11335.9212 298.2987 -14042.2425 -11331.1594 299.4632 -21.4107 -20.6912 351452.6358 2.4651 2.5498
ENERGY: 5000 0.9788 2.2674 3.7162 0.0595 -15690.3295 1603.6579 0.0000 0.0000 2701.6897 -11377.9601 297.7882 -14079.6498 -11370.1940 298.5526 -50.8409 -49.7410 352729.9511 3.9476 3.9104
TCL: Running FEP window   4: Lambda1 0.8125 Lambda2 0.75   [dLambda -0.0625]
TCL: Setting parameter firsttimestep to 0
TCL: Setting parameter alchLambda to 0.8125
Info: NONBONDED TABLE R-SQUARED SPACING: 0.0625
Info: NONBONDED TABLE SIZE: 769 POINTS
TCL: Setting parameter alchLambda2 to 0.75
Info: NONBONDED TABLE R-SQUARED SPACING: 0.0625
Info: NONBONDED TABLE SIZE: 769 POINTS
TCL: Running for 5000 steps
ETITLE: TS BOND ANGLE DIHED IMPRP ELECT VDW BOUNDARY MISC KINETIC TOTAL TEMP POTENTIAL TOTAL3 TEMPAVG PRESSURE GPRESSURE VOLUME PRESSAVG GPRESSAVG
ENERGY: 0 0.9788 2.2674 3.7162 0.0595 -15685.3459 1601.6632 0.0000 0.0000 2701.6055 -11375.0553 297.7789 -14076.6608 -11369.2288 297.7789 -52.3014 -52.3014 352729.9511 -52.3014 -52.3014
ENERGY: 1000 1.3012 2.3541 3.6394 0.3307 -15707.6292 1698.9349 0.0000 0.0000 2663.9643 -11337.1045 293.6300 -14001.0688 -11330.4047 296.2371 33.8712 31.3929 337591.1195 4.9891 4.9106
ENERGY: 2000 2.3095 1.2312 2.9725 0.1550 -15647.2128 1648.1303 0.0000 0.0000 2708.2321 -11284.1822 298.5093 -13992.4143 -11279.2271 298.1583 -7.0137 -6.7688 322602.1912 0.7113 0.7129
ENERGY: 3000 1.4706 1.0201 2.0906 0.1802 -15586.5885 1531.5681 0.0000 0.0000 2670.3308 -11379.9281 294.3317 -14050.2589 -11375.3874 298.8384 -78.9832 -77.6353 310948.5103 -1.4362 -1.4737
ENERGY: 4000 1.9513 2.8744 0.5609 0.0573 -15781.3551 1654.1487 0.0000 0.0000 2738.5947 -11383.1678 301.8560 -14121.7624 -11379.4696 296.3075 9.5244 9.9416 308592.1708 -1.4898 -1.4435
ENERGY: 5000 3.6901 1.1557 2.1279 0.1949 -15647.9155 1596.3305 0.0000 0.0000 2709.1476 -11335.2689 298.6102 -14044.4165 -11329.4799 298.9131 -42.6099 -42.8049 313699.9141 -2.7965 -2.8340
TCL: Running FEP window   5: Lambda1 0.75   Lambda2 0.6875 [dLambda -0.0625]
TCL: Setting parameter firsttimestep to 0
TCL: Setting parameter alchLambda to 0.75
Info: NONBONDED TABLE R-SQUARED SPACING: 0.0625
Info: NONBONDED TABLE SIZE: 769 POINTS
TCL: Setting parameter alchLambda2 to 0.6875
Info: NONBONDED TABLE R-SQUARED SPACING: 0.0625
Info: NONBONDED TABLE SIZE: 769 POINTS
TCL: Running for 5000 steps
ETITLE: TS BOND ANGLE DIHED IMPRP ELECT VDW BOUNDARY MISC KINETIC TOTAL TEMP POTENTIAL TOTAL3 TEMPAVG PRESSURE GPRESSURE VOLUME PRESSAVG GPRESSAVG
ENERGY: 0 3.6901 1.1557 2.1279 0.1949 -15642.8054 1594.2490 0.0000 0.0000 2709.0610 -11332.3270 298.6007 -14041.3879 -11326.4861 298.6007 -45.6984 -45.6984 313699.9141 -45.6984 -45.6984
ENERGY: 1000 2.5397 6.3909 3.4398 0.2249 -15547.7815 1596.8774 0.0000 0.0000 2651.1075 -11287.2013 292.2129 -13938.3089 -11282.9695 299.6382 -48.6692 -48.9164 304096.0019 3.1946 3.1326
ENERGY: 2000 0.9759 5.5202 3.1968 0.2572 -15666.1580 1637.6997 0.0000 0.0000 2691.7463 -11326.7619 296.6922 -14018.5082 -11320.7321 301.9818 -11.2510 -11.2852 294193.3859 6.6565 6.6139
ENERGY: 3000 3.7285 1.8798 1.8960 0.1358 -15660.8199 1594.3948 0.0000 0.0000 2679.5685 -11379.2165 295.3499 -14058.7850 -11374.3805 296.1223 -53.0330 -53.5133 304601.0715 2.8546 2.8412
ENERGY: 4000 1.5480 2.3287 1.6547 0.0735 -15772.1983 1684.4162 0.0000 0.0000 2645.3198 -11436.8575 291.5750 -14082.1772 -11431.9120 295.8056 31.3495 30.9734 304432.3151 3.5809 3.4927
ENERGY: 5000 2.5203 3.5384 3.8123 0.3204 -15693.8008 1665.0124 0.0000 0.0000 2749.8542 -11268.7427 303.0970 -14018.5969 -11262.2396 297.7476 39.8893 38.5135 311610.7928 1.3709 1.3399
TCL: Running FEP window   6: Lambda1 0.6875 Lambda2 0.625  [dLambda -0.0625]
TCL: Setting parameter firsttimestep to 0
TCL: Setting parameter alchLambda to 0.6875
Info: NONBONDED TABLE R-SQUARED SPACING: 0.0625
Info: NONBONDED TABLE SIZE: 769 POINTS
TCL: Setting parameter alchLambda2 to 0.625
Info: NONBONDED TABLE R-SQUARED SPACING: 0.0625
Info: NONBONDED TABLE SIZE: 769 POINTS
TCL: Running for 5000 steps
ETITLE: TS BOND ANGLE DIHED IMPRP ELECT VDW BOUNDARY MISC KINETIC TOTAL TEMP POTENTIAL TOTAL3 TEMPAVG PRESSURE GPRESSURE VOLUME PRESSAVG GPRESSAVG
ENERGY: 0 2.5203 3.5384 3.8123 0.3204 -15688.3047 1664.4648 0.0000 0.0000 2749.7700 -11263.8785 303.0878 -14013.6484 -11258.7944 303.0878 37.7570 37.7570 311610.7928 37.7570 37.7570
ENERGY: 1000 2.6601 3.4249 1.9427 0.1430 -15709.9729 1681.3075 0.0000 0.0000 2737.5756 -11282.9191 301.7437 -14020.4946 -11277.3018 300.2484 48.7974 47.8778 303488.4452 1.5622 1.5015
ENERGY: 2000 2.6309 3.8691 3.8203 0.4152 -15684.6244 1593.3274 0.0000 0.0000 2670.5785 -11409.9829 294.3590 -14080.5614 -11404.5887 294.6517 -59.2617 -57.3161 305304.9598 -4.4260 -4.4172
ENERGY: 3000 1.6905 3.2151 4.5364 0.1570 -15604.4285 1625.2098 0.0000 0.0000 2701.8933 -11267.7263 297.8107 -13969.6196 -11261.4953 297.8063 16.4344 15.1506 304852.2841 3.1131 3.0936
ENERGY: 4000 3.3554 1.8468 4.0718 0.2108 -15606.6533 1594.1162 0.0000 0.0000 2737.1771 -11265.8751 301.6997 -14003.0523 -11257.6902 298.7408 -27.4022 -28.3268 325541.3834 1.8003 1.7675
ENERGY: 5000 2.6422 2.4115 3.0075 0.4289 -15729.7978 1675.4248 0.0000 0.0000 2744.8728 -11301.0101 302.5480 -14045.8829 -11296.7188 298.6735 13.1228 13.2447 340276.6273 1.7949 1.8103
TCL: Running FEP window   7: Lambda1 0.625  Lambda2 0.5625 [dLambda -0.0625]
TCL: Setting parameter firsttimestep to 0
TCL: Setting parameter alchLambda to 0.625
Info: NONBONDED TABLE R-SQUARED SPACING: 0.0625
Info: NONBONDED TABLE SIZE: 769 POINTS
TCL: Setting parameter alchLambda2 to 0.5625
Info: NONBONDED TABLE R-SQUARED SPACING: 0.0625
Info: NONBONDED TABLE SIZE: 769 POINTS
TCL: Running for 5000 steps
ETITLE: TS BOND ANGLE DIHED IMPRP ELECT VDW BOUNDARY MISC KINETIC TOTAL TEMP POTENTIAL TOTAL3 TEMPAVG PRESSURE GPRESSURE VOLUME PRESSAVG GPRESSAVG
ENERGY: 0 2.6422 2.4115 3.0075 0.4289 -15726.3475 1675.6957 0.0000 0.0000 2744.7892 -11297.3724 302.5388 -14042.1616 -11291.9095 302.5388 12.3288 12.3288 340276.6273 12.3288 12.3288
ENERGY: 1000 1.3814 3.3328 3.3919 0.3006 -15738.4770 1672.8378 0.0000 0.0000 2784.9044 -11272.3281 306.9604 -14057.2325 -11266.3658 301.1606 13.2379 13.2976 338385.8882 1.7400 1.7822
ENERGY: 2000 1.2872 3.2523 2.6722 0.2454 -15648.9132 1660.0688 0.0000 0.0000 2700.4341 -11280.9531 297.6498 -13981.3873 -11276.7586 302.2597 -6.7099 -7.0690 340156.4666 -0.9544 -0.9527
ENERGY: 3000 4.0324 1.7544 2.3010 0.1143 -15769.2753 1618.0168 0.0000 0.0000 2734.7692 -11408.2871 301.4343 -14143.0563 -11400.9697 296.7978 -20.5130 -21.1264 323535.0831 0.3190 0.3389
ENERGY: 4000 1.8522 2.3923 3.2616 0.3374 -15748.8873 1704.2148 0.0000 0.0000 2676.1647 -11360.6644 294.9748 -14036.8291 -11355.2419 297.7704 76.3710 75.7938 308928.4472 0.7167 0.7670
ENERGY: 5000 2.9964 2.1035 3.7315 0.0789 -15736.8975 1703.8352 0.0000 0.0000 2716.1821 -11307.9700 299.3856 -14024.1521 -11299.6258 298.9055 48.1250 47.0368 316779.7141 -0.9018 -0.9175
TCL: Running FEP window   8: Lambda1 0.5625 Lambda2 0.5    [dLambda -0.0625]
TCL: Setting parameter firsttimestep to 0
TCL: Setting parameter alchLambda to 0.5625
Info: NONBONDED TABLE R-SQUARED SPACING: 0.0625
Info: NONBONDED TABLE SIZE: 769 POINTS
TCL: Setting parameter alchLambda2 to 0.5
Info: NONBONDED TABLE R-SQUARED SPACING: 0.0625
Info: NONBONDED TABLE SIZE: 769 POINTS
TCL: Running for 5000 steps
ETITLE: TS BOND ANGLE DIHED IMPRP ELECT VDW BOUNDARY MISC KINETIC TOTAL TEMP POTENTIAL TOTAL3 TEMPAVG PRESSURE GPRESSURE VOLUME PRESSAVG GPRESSAVG
ENERGY: 0 2.9964 2.1035 3.7315 0.0789 -15730.8218 1702.2983 0.0000 0.0000 2716.0982 -11303.5151 299.3764 -14019.6133 -11298.0346 299.3764 46.3848 46.3848 316779.7141 46.3848 46.3848
ENERGY: 1000 5.2297 2.4480 3.2054 0.1627 -15681.3522 1615.7559 0.0000 0.0000 2756.1689 -11298.3816 303.7931 -14054.5505 -11291.8632 299.9194 -30.9274 -30.9070 325642.5968 2.0015 1.9623
ENERGY: 2000 3.6616 2.1497 1.0092 0.0379 -15585.6638 1593.7370 0.0000 0.0000 2744.4444 -11240.6240 302.5008 -13985.0684 -11235.6083 301.0639 -69.9779 -70.5091 336455.7739 3.5606 3.6017
ENERGY: 3000 2.9290 1.9544 0.9808 0.0169 -15551.3006 1595.6824 0.0000 0.0000 2764.9715 -11184.7657 304.7633 -13949.7371 -11180.8955 301.6519 -33.0343 -33.1073 339187.3856 1.2595 1.2575
ENERGY: 4000 2.1725 3.2848 2.7929 0.2812 -15396.8246 1500.5539 0.0000 0.0000 2709.0675 -11178.6718 298.6014 -13887.7393 -11174.2271 302.5108 -87.0846 -88.0554 333782.3534 2.2071 2.2533
ENERGY: 5000 1.7182 3.4255 2.2343 0.2383 -15683.5943 1688.5695 0.0000 0.0000 2766.2637 -11221.1448 304.9058 -13987.4085 -11216.9189 301.7443 0.9766 1.9207 328577.2801 1.9453 1.9459
TCL: Running FEP window   9: Lambda1 0.5    Lambda2 0.4375 [dLambda -0.0625]
TCL: Setting parameter firsttimestep to 0
TCL: Setting parameter alchLambda to 0.5
Info: NONBONDED TABLE R-SQUARED SPACING: 0.0625
Info: NONBONDED TABLE SIZE: 769 POINTS
TCL: Setting parameter alchLambda2 to 0.4375
Info: NONBONDED TABLE R-SQUARED SPACING: 0.0625
Info: NONBONDED TABLE SIZE: 769 POINTS
TCL: Running for 5000 steps
ETITLE: TS BOND ANGLE DIHED IMPRP ELECT VDW BOUNDARY MISC KINETIC TOTAL TEMP POTENTIAL TOTAL3 TEMPAVG PRESSURE GPRESSURE VOLUME PRESSAVG GPRESSAVG
ENERGY: 0 1.7182 3.4255 2.2343 0.2383 -15680.5091 1688.5634 0.0000 0.0000 2766.1806 -11218.1488 304.8966 -13984.3295 -11213.0062 304.8966 0.7684 0.7684 328577.2801 0.7684 0.7684
ENERGY: 1000 3.8679 4.2329 1.7495 0.2151 -15728.9863 1710.8112 0.0000 0.0000 2681.2293 -11326.8803 295.5330 -14008.1096 -11319.4544 300.7200 55.0348 53.8822 315707.9920 -2.0988 -1.9888
ENERGY: 2000 2.3909 1.2196 4.0359 0.3169 -15759.7737 1670.0374 0.0000 0.0000 2737.3472 -11344.4259 301.7185 -14081.7731 -11336.7537 299.9280 18.5095 19.1710 313164.4994 0.6805 0.7229
ENERGY: 3000 4.4537 3.4624 0.2689 0.0167 -15616.7229 1595.9112 0.0000 0.0000 2623.8002 -11388.8098 289.2030 -14012.6100 -11383.1575 297.0719 -49.0677 -49.4087 324983.3837 1.8165 1.7835
ENERGY: 4000 2.3730 3.1352 4.8609 0.4446 -15686.5574 1633.5617 0.0000 0.0000 2663.0683 -11379.1136 293.5313 -14042.1819 -11372.4076 295.2986 -6.0556 -7.5007 320075.7830 0.4095 0.4150
ENERGY: 5000 3.3431 2.3805 2.5431 0.1779 -15804.5347 1702.8330 0.0000 0.0000 2662.2429 -11431.0142 293.4403 -14093.2571 -11423.4829 295.9978 22.1109 21.1308 299641.6185 0.7186 0.7277
TCL: Running FEP window  10: Lambda1 0.4375 Lambda2 0.375  [dLambda -0.0625]
TCL: Setting parameter firsttimestep to 0
TCL: Setting parameter alchLambda to 0.4375
Info: NONBONDED TABLE R-SQUARED SPACING: 0.0625
Info: NONBONDED TABLE SIZE: 769 POINTS
TCL: Setting parameter alchLambda2 to 0.375
Info: NONBONDED TABLE R-SQUARED SPACING: 0.0625
Info: NONBONDED TABLE SIZE: 769 POINTS
TCL: Running for 5000 steps
ETITLE: TS BOND ANGLE DIHED IMPRP ELECT VDW BOUNDARY MISC KINETIC TOTAL TEMP POTENTIAL TOTAL3 TEMPAVG PRESSURE GPRESSURE VOLUME PRESSAVG GPRESSAVG
ENERGY: 0 3.3431 2.3805 2.5431 0.1779 -15804.5347 1703.8722 0.0000 0.0000 2662.1587 -11430.0592 293.4310 -14092.2180 -11424.3730 293.4310 21.3672 21.3672 299641.6185 21.3672 21.3672
ENERGY: 1000 5.2221 1.7229 3.2797 0.2121 -15736.5696 1651.8192 0.0000 0.0000 2696.6462 -11377.6674 297.2323 -14074.3136 -11373.1877 296.9369 -7.9070 -6.6199 301468.1160 2.4043 2.4233
ENERGY: 2000 3.8700 2.3006 3.6887 0.3023 -15760.5430 1741.3644 0.0000 0.0000 2660.9243 -11348.0928 293.2949 -14009.0171 -11344.6553 299.3131 66.5359 66.0919 298765.9639 0.5159 0.5273
ENERGY: 3000 4.5171 2.3154 2.3907 0.2209 -15775.1505 1662.2768 0.0000 0.0000 2729.4921 -11373.9375 300.8527 -14103.4296 -11370.8408 294.8170 -20.7463 -20.2826 296317.9324 3.4861 3.4695
ENERGY: 4000 2.7624 5.6972 2.1370 0.2251 -15760.9633 1683.1310 0.0000 0.0000 2658.7740 -11408.2366 293.0579 -14067.0105 -11404.7837 295.6677 37.0908 34.9294 303163.7548 1.7053 1.7443
ENERGY: 5000 2.3960 2.9280 2.6947 0.1036 -15803.7070 1743.1726 0.0000 0.0000 2675.8875 -11376.5245 294.9442 -14052.4120 -11372.5995 294.5085 84.6324 84.5917 312771.5147 -0.5589 -0.5488
TCL: Running FEP window  11: Lambda1 0.375  Lambda2 0.3125 [dLambda -0.0625]
TCL: Setting parameter firsttimestep to 0
TCL: Setting parameter alchLambda to 0.375
Info: NONBONDED TABLE R-SQUARED SPACING: 0.0625
Info: NONBONDED TABLE SIZE: 769 POINTS
TCL: Setting parameter alchLambda2 to 0.3125
Info: NONBONDED TABLE R-SQUARED SPACING: 0.0625
Info: NONBONDED TABLE SIZE: 769 POINTS
TCL: Running for 5000 steps
ETITLE: TS BOND ANGLE DIHED IMPRP ELECT VDW BOUNDARY MISC KINETIC TOTAL TEMP POTENTIAL TOTAL3 TEMPAVG PRESSURE GPRESSURE VOLUME PRESSAVG GPRESSAVG
ENERGY: 0 2.3960 2.9280 2.6947 0.1036 -15803.7070 1743.5557 0.0000 0.0000 2675.8038 -11376.2251 294.9350 -14052.0289 -11371.6190 294.9350 84.0769 84.0769 312771.5147 84.0769 84.0769
ENERGY: 1000 3.8258 3.6756 1.1691 0.0941 -15731.9858 1698.2918 0.0000 0.0000 2692.3717 -11332.5576 296.7612 -14024.9293 -11327.3467 296.4641 13.9751 12.7636 324753.6494 1.2092 1.1850
ENERGY: 2000 2.1513 2.4431 2.4935 0.2994 -15680.7676 1673.9826 0.0000 0.0000 2705.1526 -11294.2450 298.1699 -13999.3977 -11289.4148 302.8225 6.0827 5.9628 317893.4960 1.3119 1.3193
ENERGY: 3000 4.1580 5.5880 2.3863 0.2037 -15878.2417 1816.1729 0.0000 0.0000 2691.5855 -11358.1474 296.6745 -14049.7328 -11352.4465 294.7360 136.0813 135.8339 316911.1209 0.1647 0.1355
ENERGY: 4000 1.3245 1.6567 1.9913 0.2459 -15740.5834 1640.9697 0.0000 0.0000 2665.0162 -11429.3793 293.7460 -14094.3954 -11423.5655 294.6486 -58.7163 -60.7258 324026.7318 1.1016 1.0847
ENERGY: 5000 3.9485 2.7320 1.7182 0.1545 -15777.0380 1727.3725 0.0000 0.0000 2676.1027 -11365.0096 294.9679 -14041.1123 -11361.0030 295.8370 45.2529 44.2996 323056.3444 -0.7381 -0.7719
TCL: Running FEP window  12: Lambda1 0.3125 Lambda2 0.25   [dLambda -0.0625]
TCL: Setting parameter firsttimestep to 0
TCL: Setting parameter alchLambda to 0.3125
Info: NONBONDED TABLE R-SQUARED SPACING: 0.0625
Info: NONBONDED TABLE SIZE: 769 POINTS
TCL: Setting parameter alchLambda2 to 0.25
Info: NONBONDED TABLE R-SQUARED SPACING: 0.0625
Info: NONBONDED TABLE SIZE: 769 POINTS
TCL: Running for 5000 steps
ETITLE: TS BOND ANGLE DIHED IMPRP ELECT VDW BOUNDARY MISC KINETIC TOTAL TEMP POTENTIAL TOTAL3 TEMPAVG PRESSURE GPRESSURE VOLUME PRESSAVG GPRESSAVG
ENERGY: 0 3.9485 2.7320 1.7182 0.1545 -15777.0380 1727.8822 0.0000 0.0000 2676.0188 -11364.5838 294.9587 -14040.6026 -11359.8587 294.9587 43.6781 43.6781 323056.3444 43.6781 43.6781
ENERGY: 1000 1.5629 1.7422 1.8722 0.0536 -15655.8902 1686.4350 0.0000 0.0000 2614.8036 -11349.4207 288.2114 -13964.2243 -11345.2549 298.1894 28.0745 26.4448 324688.3336 1.3917 1.3753
ENERGY: 2000 2.1791 3.3915 0.8458 0.0250 -15690.9541 1589.3802 0.0000 0.0000 2688.9674 -11406.1651 296.3859 -14095.1325 -11400.6680 295.7705 -69.2995 -68.7119 321447.9517 2.1695 2.1890
ENERGY: 3000 1.6684 4.1937 3.1827 0.2400 -15695.0196 1643.8890 0.0000 0.0000 2674.7264 -11367.1193 294.8162 -14041.8458 -11361.7082 294.3902 10.9203 10.5712 325743.2171 0.5902 0.6340
ENERGY: 4000 0.7315 5.1167 1.7470 0.1691 -15671.5329 1690.4275 0.0000 0.0000 2659.5279 -11313.8132 293.1410 -13973.3410 -11310.3739 296.8266 44.5180 43.9255 331538.2593 0.4989 0.5349
ENERGY: 5000 1.2489 3.5779 4.0538 0.1986 -15699.0681 1624.7948 0.0000 0.0000 2705.7313 -11359.4628 298.2337 -14065.1941 -11353.7438 298.7988 -11.9147 -12.2751 342357.8702 0.3624 0.3509
TCL: Running FEP window  13: Lambda1 0.25   Lambda2 0.1875 [dLambda -0.0625]
TCL: Setting parameter firsttimestep to 0
TCL: Setting parameter alchLambda to 0.25
Info: NONBONDED TABLE R-SQUARED SPACING: 0.0625
Info: NONBONDED TABLE SIZE: 769 POINTS
TCL: Setting parameter alchLambda2 to 0.1875
Info: NONBONDED TABLE R-SQUARED SPACING: 0.0625
Info: NONBONDED TABLE SIZE: 769 POINTS
TCL: Running for 5000 steps
ETITLE: TS BOND ANGLE DIHED IMPRP ELECT VDW BOUNDARY MISC KINETIC TOTAL TEMP POTENTIAL TOTAL3 TEMPAVG PRESSURE GPRESSURE VOLUME PRESSAVG GPRESSAVG
ENERGY: 0 1.2489 3.5779 4.0538 0.1986 -15699.0681 1625.6794 0.0000 0.0000 2705.6499 -11358.6596 298.2247 -14064.3095 -11353.3560 298.2247 -12.2444 -12.2444 342357.8702 -12.2444 -12.2444
ENERGY: 1000 2.8672 2.4994 1.5299 0.0772 -15741.2836 1690.9116 0.0000 0.0000 2659.4060 -11383.9923 293.1276 -14043.3983 -11378.9000 299.5699 6.2499 5.7680 345789.0361 -0.7217 -0.7081
ENERGY: 2000 2.8186 1.7521 2.9030 0.2396 -15716.1487 1639.5767 0.0000 0.0000 2710.4269 -11358.4316 298.7513 -14068.8585 -11352.4633 295.9545 -28.9897 -28.8547 320387.2517 0.0619 0.1842
ENERGY: 3000 2.8110 3.5872 1.1287 0.0855 -15831.5436 1738.5077 0.0000 0.0000 2695.0609 -11390.3627 297.0576 -14085.4236 -11383.7676 294.9904 66.4048 67.1910 303423.8370 -2.0761 -2.0869
ENERGY: 4000 2.0762 3.4308 4.1698 0.1645 -15708.4999 1646.9997 0.0000 0.0000 2698.0682 -11353.5906 297.3890 -14051.6589 -11349.1816 298.2120 -14.5402 -14.3619 299844.6469 3.1946 3.2179
ENERGY: 5000 1.8128 4.5507 1.9188 0.0850 -15699.2612 1672.6466 0.0000 0.0000 2678.8963 -11339.3510 295.2759 -14018.2473 -11334.8148 297.8224 10.2934 10.3829 305985.8496 1.2666 1.1698
TCL: Running FEP window  14: Lambda1 0.1875 Lambda2 0.125  [dLambda -0.0625]
TCL: Setting parameter firsttimestep to 0
TCL: Setting parameter alchLambda to 0.1875
Info: NONBONDED TABLE R-SQUARED SPACING: 0.0625
Info: NONBONDED TABLE SIZE: 769 POINTS
TCL: Setting parameter alchLambda2 to 0.125
Info: NONBONDED TABLE R-SQUARED SPACING: 0.0625
Info: NONBONDED TABLE SIZE: 769 POINTS
TCL: Running for 5000 steps
ETITLE: TS BOND ANGLE DIHED IMPRP ELECT VDW BOUNDARY MISC KINETIC TOTAL TEMP POTENTIAL TOTAL3 TEMPAVG PRESSURE GPRESSURE VOLUME PRESSAVG GPRESSAVG
ENERGY: 0 1.8128 4.5507 1.9188 0.0850 -15699.2612 1673.0752 0.0000 0.0000 2678.8107 -11339.0081 295.2664 -14017.8187 -11333.9796 295.2664 9.9876 9.9876 305985.8496 9.9876 9.9876
ENERGY: 1000 3.9563 3.5610 1.5945 0.1147 -15783.1241 1684.0054 0.0000 0.0000 2743.7317 -11346.1605 302.4222 -14089.8922 -11341.0873 300.1239 18.7013 18.7377 305564.0681 0.1978 0.1815
ENERGY: 2000 2.7621 2.9019 2.7020 0.2529 -15758.1295 1640.4148 0.0000 0.0000 2703.2879 -11405.8078 297.9644 -14109.0957 -11400.7185 297.2618 -6.5140 -6.2919 299730.8642 1.2325 1.1740
ENERGY: 3000 1.7255 4.4010 4.8493 0.1731 -15776.5893 1710.5404 0.0000 0.0000 2675.3814 -11379.5186 294.8884 -14054.9001 -11375.8361 299.0814 23.9257 23.7266 301437.0133 2.2499 2.2335
ENERGY: 4000 4.9912 1.7496 3.9200 0.3015 -15800.4782 1721.2995 0.0000 0.0000 2716.4928 -11351.7235 299.4199 -14068.2163 -11346.4525 297.7970 24.9301 25.2026 295881.7735 0.6464 0.7171
ENERGY: 5000 4.0222 1.9968 4.0418 0.3267 -15781.9673 1703.6898 0.0000 0.0000 2734.3347 -11333.5554 301.3864 -14067.8901 -11329.4173 296.4018 25.5901 25.6983 294778.7659 -0.3039 -0.2775
TCL: Running FEP window  15: Lambda1 0.125  Lambda2 0.0625 [dLambda -0.0625]
TCL: Setting parameter firsttimestep to 0
TCL: Setting parameter alchLambda to 0.125
Info: NONBONDED TABLE R-SQUARED SPACING: 0.0625
Info: NONBONDED TABLE SIZE: 769 POINTS
TCL: Setting parameter alchLambda2 to 0.0625
Info: NONBONDED TABLE R-SQUARED SPACING: 0.0625
Info: NONBONDED TABLE SIZE: 769 POINTS
TCL: Running for 5000 steps
ETITLE: TS BOND ANGLE DIHED IMPRP ELECT VDW BOUNDARY MISC KINETIC TOTAL TEMP POTENTIAL TOTAL3 TEMPAVG PRESSURE GPRESSURE VOLUME PRESSAVG GPRESSAVG
ENERGY: 0 4.0222 1.9968 4.0418 0.3267 -15781.9673 1702.4771 0.0000 0.0000 2734.2530 -11334.8498 301.3774 -14069.1028 -11330.4178 301.3774 24.8103 24.8103 294778.7659 24.8103 24.8103
ENERGY: 1000 2.6972 4.4375 4.5192 0.3154 -15498.1727 1496.3840 0.0000 0.0000 2685.1058 -11304.7136 295.9603 -13989.8194 -11302.1453 301.7451 -158.0083 -159.1890 293468.2929 3.5611 3.5024
ENERGY: 2000 3.8967 2.7534 3.0618 0.2975 -15628.5599 1666.7997 0.0000 0.0000 2644.4564 -11307.2944 291.4798 -13951.7508 -11302.0699 299.4059 16.7527 17.9968 299357.5016 -0.3260 -0.3039
ENERGY: 3000 3.9656 1.0556 3.5496 0.2531 -15653.7673 1673.8375 0.0000 0.0000 2698.6752 -11272.4307 297.4560 -13971.1059 -11269.2627 299.7112 41.2532 39.7458 286219.1894 0.0616 0.0242
ENERGY: 4000 4.1955 1.8939 1.7651 0.0673 -15623.4402 1624.5479 0.0000 0.0000 2717.1135 -11273.8570 299.4883 -13990.9705 -11268.0927 300.7350 -24.4330 -25.8950 278796.4645 0.5983 0.6911
ENERGY: 5000 3.5667 3.2606 3.6122 0.4311 -15589.0294 1606.9187 0.0000 0.0000 2725.0900 -11246.1500 300.3675 -13971.2400 -11240.3545 299.5458 -16.6899 -16.3348 275338.5717 1.1969 1.1416
TCL: Running FEP window  16: Lambda1 0.0625 Lambda2 0.0    [dLambda -0.0625]
TCL: Setting parameter firsttimestep to 0
TCL: Setting parameter alchLambda to 0.0625
Info: NONBONDED TABLE R-SQUARED SPACING: 0.0625
Info: NONBONDED TABLE SIZE: 769 POINTS
TCL: Setting parameter alchLambda2 to 0.0
Info: NONBONDED TABLE R-SQUARED SPACING: 0.0625
Info: NONBONDED TABLE SIZE: 769 POINTS
TCL: Running for 5000 steps
ETITLE: TS BOND ANGLE DIHED IMPRP ELECT VDW BOUNDARY MISC KINETIC TOTAL TEMP POTENTIAL TOTAL3 TEMPAVG PRESSURE GPRESSURE VOLUME PRESSAVG GPRESSAVG
ENERGY: 0 3.5667 3.2606 3.6122 0.4311 -15589.0294 1606.5664 0.0000 0.0000 2725.0070 -11246.5853 300.3583 -13971.5923 -11241.8411 300.3583 -16.6511 -16.6511 275338.5717 -16.6511 -16.6511
ENERGY: 1000 3.4826 8.1180 1.6725 0.1345 -15622.3483 1653.5569 0.0000 0.0000 2784.1514 -11171.2324 306.8774 -13955.3837 -11164.6934 300.4237 25.4169 26.7722 278816.1909 -1.9718 -1.9491
ENERGY: 2000 2.9796 6.3021 4.7944 0.3510 -15568.3952 1638.3872 0.0000 0.0000 2699.3059 -11216.2751 297.5255 -13915.5810 -11211.6773 303.5832 13.5382 14.0136 281622.1250 0.7368 0.6920
ENERGY: 3000 1.7392 4.6621 3.4887 0.1587 -15550.7161 1537.3774 0.0000 0.0000 2653.2743 -11350.0158 292.4517 -14003.2901 -11344.4395 298.4824 -114.2867 -114.6274 283388.8060 0.6784 0.6707
ENERGY: 4000 2.0419 2.0627 3.3641 0.1791 -15709.0325 1626.7478 0.0000 0.0000 2693.7721 -11380.8648 296.9155 -14074.6369 -11376.6703 294.2797 -2.5852 -1.0244 273456.9462 -1.5012 -1.5623
ENERGY: 5000 2.8668 3.2633 1.6354 0.0180 -15817.4984 1712.0683 0.0000 0.0000 2692.4812 -11405.1653 296.7732 -14097.6465 -11400.9433 296.4856 -26.2735 -26.5633 269898.0722 2.6154 2.6552
