Info: SIMULATION PARAMETERS:
Info: TIMESTEP               2
Info: NUMBER OF STEPS        0
Info: STEPS PER CYCLE        10
Info: PERIODIC CELL BASIS 1  40.176 0 0
Info: PERIODIC CELL BASIS 2  0 42.62 0
Info: PERIODIC CELL BASIS 3  0 0 42.04
Info: PERIODIC CELL CENTER   0 0 0
Info: WRAPPING WATERS AROUND PERIODIC BOUNDARIES ON OUTPUT.
Info: WRAPPING ALL CLUSTERS AROUND PERIODIC BOUNDARIES ON OUTPUT.
Info: FIRST LDB TIMESTEP     50
Info: LAST LDB TIMESTEP     -1
Info: HOM BACKGROUND SCALING 1
Info: PME BACKGROUND SCALING 1
Info: MIN ATOMS PER PATCH    40
Info: EMPTY PATCH LOAD       40 ATOMS
Info: INITIAL TEMPERATURE    300
Info: CENTER OF MASS MOVING INITIALLY? NO
Info: DIELECTRIC             1
Info: EXCLUDE                SCALED ONE-FOUR
Info: 1-4 ELECTROSTATICS SCALED BY 0.833333
Info: MODIFIED 1-4 VDW PARAMETERS WILL BE USED
Info: DCD FILENAME           mobley_5467162_min.dcd
Info: DCD FREQUENCY          5000
Info: DCD FIRST STEP         5000
Info: DCD FILE WILL CONTAIN UNIT CELL DATA
Info: XST FILENAME           mobley_5467162_min.xst
Info: XST FREQUENCY          5000
Info: NO VELOCITY DCD OUTPUT
Info: NO FORCE DCD OUTPUT
Info: OUTPUT FILENAME        mobley_5467162_min
Info: BINARY OUTPUT FILES WILL BE USED
Info: RESTART FILENAME       mobley_5467162_min.restart
Info: RESTART FREQUENCY      5000
Info: BINARY RESTART FILES WILL BE USED
Info: CUTOFF                 9
Info: PAIRLIST DISTANCE      11
Info: PAIRLIST SHRINK RATE   0.01
Info: PAIRLIST GROW RATE     0.01
Info: PAIRLIST TRIGGER       0.3
Info: PAIRLISTS PER CYCLE    2
Info: PAIRLISTS ENABLED
Info: MARGIN                 8
Info: HYDROGEN GROUP CUTOFF  2.5
Info: PATCH DIMENSION        21.5
Info: ENERGY OUTPUT STEPS    5000
Info: ENERGY EVALUATION STEPS    5000
Info: OUTPUT ENERGY PRECISION 4
Info: CROSSTERM ENERGY INCLUDED IN DIHEDRAL
Info: TIMING OUTPUT STEPS    50000
Info: PRESSURE OUTPUT STEPS  5000
Info: LANGEVIN DYNAMICS ACTIVE
Info: LANGEVIN TEMPERATURE   300
Info: LANGEVIN USING BBK INTEGRATOR
Info: LANGEVIN DAMPING COEFFICIENT IS 1 INVERSE PS
Info: LANGEVIN DYNAMICS APPLIED TO HYDROGENS
Info: LANGEVIN PISTON PRESSURE CONTROL ACTIVE
Info:        TARGET PRESSURE IS 1.01325 BAR
Info:     OSCILLATION PERIOD IS 50 FS
Info:             DECAY TIME IS 25 FS
Info:     PISTON TEMPERATURE IS 300 K
Info:       PRESSURE CONTROL IS GROUP-BASED
Info:    INITIAL STRAIN RATE IS 0 0 0
Info:       CELL FLUCTUATION IS ISOTROPIC
Info: PARTICLE MESH EWALD (PME) ACTIVE
Info: PME TOLERANCE               1e-06
Info: PME EWALD COEFFICIENT       0.348832
Info: PME INTERPOLATION ORDER     4
Info: PME GRID DIMENSIONS         44 44 44
Info: PME MAXIMUM GRID SPACING    1
Info: FULL ELECTROSTATIC EVALUATION FREQUENCY      2
Info: USING VERLET I (r-RESPA) MTS SCHEME.
Info: C1 SPLITTING OF LONG RANGE ELECTROSTATICS
Info: PLACING ATOMS IN PATCHES BY HYDROGEN GROUPS
Info: RIGID BONDS TO HYDROGEN : ALL
Info:         ERROR TOLERANCE : 1e-08
Info:          MAX ITERATIONS : 100
Info: RIGID WATER USING SETTLE ALGORITHM
Info: RANDOM NUMBER SEED     1741345502
Info: USE HYDROGEN BONDS?    NO
Info: Using AMBER format force field!
Info: AMBER PARM FILE        mobley_5467162.prmtop
Info: COORDINATE PDB         mobley_5467162.pdb
Info: Exclusions will be read from PARM file!
Info: SCNB (VDW SCALING)     2
Info: USING ARITHMETIC MEAN TO COMBINE L-J SIGMA PARAMETERS
Info: SUMMARY OF PARAMETERS:
Info: 9 BONDS
Info: 9 ANGLES
Info:   9 HARMONIC
Info:   0 COSINE-BASED
Info: 6 DIHEDRAL
Info: 0 IMPROPER
Info: 0 CROSSTERM
Info: 0 VDW
Info: 36 VDW_PAIRS
Info: 0 NBTHOLE_PAIRS
Info: STRUCTURE SUMMARY:
Info: 5272 ATOMS
Info: 5272 BONDS
Info: 43 ANGLES
Info: 64 DIHEDRALS
Info: 0 IMPROPERS
Info: 0 CROSSTERMS
Info: 5371 EXCLUSIONS
Info: 5261 RIGID BONDS
Info: 10555 DEGREES OF FREEDOM
Info: 1760 HYDROGEN GROUPS
Info: 4 ATOMS IN LARGEST HYDROGEN GROUP
Info: 1760 MIGRATION GROUPS
Info: 4 ATOMS IN LARGEST MIGRATION GROUP
Info: TOTAL MASS = 31660.2 amu
Info: TOTAL CHARGE = -0.000499953 e
Info: MASS DENSITY = 0.730348 g/cm^3
Info: ATOM DENSITY = 0.0732373 atoms/A^3
Info: ADDED 0 IMPLICIT EXCLUSIONS
Info: NONBONDED TABLE R-SQUARED SPACING: 0.0625
Info: NONBONDED TABLE SIZE: 705 POINTS
Info: REMOVING COM VELOCITY -0.0716803 0.0221248 -0.0928464
TCL: Minimizing for 2000 steps
ETITLE: TS BOND ANGLE DIHED IMPRP ELECT VDW BOUNDARY MISC KINETIC TOTAL TEMP POTENTIAL TOTAL3 TEMPAVG PRESSURE GPRESSURE VOLUME PRESSAVG GPRESSAVG
ENERGY: 0 0.2151 2.1598 1.4648 0.0000 -16509.0091 1860.8856 0.0000 0.0000 0.0000 -14644.2838 0.0000 -14644.2838 -14644.2838 0.0000 11330.7487 -16143.8237 71985.1391 11330.7487 -16143.8237
ENERGY: 400 6.2614 3.5062 1.7564 0.0000 -21762.9835 3058.9471 0.0000 0.0000 0.0000 -18692.5124 0.0000 -18692.5124 -18692.5124 0.0000 15339.5960 15484.1973 71985.1391 15339.5960 15484.1973
ENERGY: 800 1.6208 2.6304 1.6441 0.0000 -22879.6307 3516.4506 0.0000 0.0000 0.0000 -19357.2848 0.0000 -19357.2848 -19357.2848 0.0000 17301.3604 17425.3883 71985.1391 17301.3604 17425.3883
ENERGY: 1200 1.5605 2.2748 2.3257 0.0000 -23578.1207 3869.0996 0.0000 0.0000 0.0000 -19702.8601 0.0000 -19702.8601 -19702.8601 0.0000 18870.7826 18983.8610 71985.1391 18870.7826 18983.8610
ENERGY: 1600 1.2455 2.2397 2.7612 0.0000 -23850.7995 3972.0207 0.0000 0.0000 0.0000 -19872.5323 0.0000 -19872.5323 -19872.5323 0.0000 19351.6189 19461.4136 71985.1391 19351.6189 19461.4136
ENERGY: 2000 1.1948 2.3246 2.6616 0.0000 -23973.3096 4008.7784 0.0000 0.0000 0.0000 -19958.3502 0.0000 -19958.3502 -19958.3502 0.0000 19546.0997 19650.5742 71985.1391 19546.0997 19650.5742
TCL: Exiting due to exit command.
Info: NAMD 3.0.1 for Linux-x86_64-multicore
Info: Please visit http://www.ks.uiuc.edu/Research/namd/
Info: for updates, documentation, and support information.
Info: Please cite Phillips et al., J. Chem. Phys. 153:044130 (2020) doi:10.1063/5.0014475
Info: in all publications reporting results obtained with NAMD.
Info: Based on Charm++/Converse 80000 for multicore-linux-x86_64-gcc
Info: Built Mon Oct 14 11:11:06 CDT 2024 by dhardy on athine.ks.uiuc.edu
Info: 1 NAMD  3.0.1  Linux-x86_64-multicore  16    k008  z5358697
Info: Running on 16 processors, 1 nodes, 1 physical nodes.
Info: CPU topology information available.
Info: Charm++/Converse parallel runtime startup completed at 0.00960957 s
Info: 1043.45 MB of memory in use based on /proc/self/stat
Info: Configuration file is mobley_5467162_equil.namd
Info: Working in the current directory /srv/scratch/z5358697/prod_prep_6/5467162
TCL: Running 25000 steps at 30 kelvin.
TCL: Suspending until startup complete.
Info: SIMULATION PARAMETERS:
Info: TIMESTEP               2
Info: NUMBER OF STEPS        0
Info: STEPS PER CYCLE        10
Info: PERIODIC CELL BASIS 1  40.176 0 0
Info: PERIODIC CELL BASIS 2  0 42.62 0
Info: PERIODIC CELL BASIS 3  0 0 42.04
Info: PERIODIC CELL CENTER   0 0 0
Info: WRAPPING WATERS AROUND PERIODIC BOUNDARIES ON OUTPUT.
Info: WRAPPING ALL CLUSTERS AROUND PERIODIC BOUNDARIES ON OUTPUT.
Info: FIRST LDB TIMESTEP     50
Info: LAST LDB TIMESTEP     -1
Info: HOM BACKGROUND SCALING 1
Info: PME BACKGROUND SCALING 1
Info: MIN ATOMS PER PATCH    40
Info: EMPTY PATCH LOAD       40 ATOMS
Info: INITIAL TEMPERATURE    300
Info: CENTER OF MASS MOVING INITIALLY? NO
Info: DIELECTRIC             1
Info: EXCLUDE                SCALED ONE-FOUR
Info: 1-4 ELECTROSTATICS SCALED BY 0.833333
Info: MODIFIED 1-4 VDW PARAMETERS WILL BE USED
Info: DCD FILENAME           mobley_5467162_equil.dcd
Info: DCD FREQUENCY          5000
Info: DCD FIRST STEP         5000
Info: DCD FILE WILL CONTAIN UNIT CELL DATA
Info: XST FILENAME           mobley_5467162_equil.xst
Info: XST FREQUENCY          5000
Info: NO VELOCITY DCD OUTPUT
Info: NO FORCE DCD OUTPUT
Info: OUTPUT FILENAME        mobley_5467162_equil
Info: BINARY OUTPUT FILES WILL BE USED
Info: RESTART FILENAME       mobley_5467162_equil.restart
Info: RESTART FREQUENCY      5000
Info: BINARY RESTART FILES WILL BE USED
Info: CUTOFF                 9
Info: PAIRLIST DISTANCE      11
Info: PAIRLIST SHRINK RATE   0.01
Info: PAIRLIST GROW RATE     0.01
Info: PAIRLIST TRIGGER       0.3
Info: PAIRLISTS PER CYCLE    2
Info: PAIRLISTS ENABLED
Info: MARGIN                 8
Info: HYDROGEN GROUP CUTOFF  2.5
Info: PATCH DIMENSION        21.5
Info: ENERGY OUTPUT STEPS    5000
Info: ENERGY EVALUATION STEPS    5000
Info: OUTPUT ENERGY PRECISION 4
Info: CROSSTERM ENERGY INCLUDED IN DIHEDRAL
Info: TIMING OUTPUT STEPS    50000
Info: PRESSURE OUTPUT STEPS  5000
Info: LANGEVIN DYNAMICS ACTIVE
Info: LANGEVIN TEMPERATURE   30
Info: LANGEVIN USING BBK INTEGRATOR
Info: LANGEVIN DAMPING COEFFICIENT IS 1 INVERSE PS
Info: LANGEVIN DYNAMICS APPLIED TO HYDROGENS
Info: LANGEVIN PISTON PRESSURE CONTROL ACTIVE
Info:        TARGET PRESSURE IS 1.01325 BAR
Info:     OSCILLATION PERIOD IS 50 FS
Info:             DECAY TIME IS 25 FS
Info:     PISTON TEMPERATURE IS 300 K
Info:       PRESSURE CONTROL IS GROUP-BASED
Info:    INITIAL STRAIN RATE IS 0 0 0
Info:       CELL FLUCTUATION IS ISOTROPIC
Info: PARTICLE MESH EWALD (PME) ACTIVE
Info: PME TOLERANCE               1e-06
Info: PME EWALD COEFFICIENT       0.348832
Info: PME INTERPOLATION ORDER     4
Info: PME GRID DIMENSIONS         44 44 44
Info: PME MAXIMUM GRID SPACING    1
Info: FULL ELECTROSTATIC EVALUATION FREQUENCY      2
Info: USING VERLET I (r-RESPA) MTS SCHEME.
Info: C1 SPLITTING OF LONG RANGE ELECTROSTATICS
Info: PLACING ATOMS IN PATCHES BY HYDROGEN GROUPS
Info: RIGID BONDS TO HYDROGEN : ALL
Info:         ERROR TOLERANCE : 1e-08
Info:          MAX ITERATIONS : 100
Info: RIGID WATER USING SETTLE ALGORITHM
Info: RANDOM NUMBER SEED     1741345519
Info: USE HYDROGEN BONDS?    NO
Info: Using AMBER format force field!
Info: AMBER PARM FILE        mobley_5467162.prmtop
Info: COORDINATE PDB         mobley_5467162.pdb
Info: Exclusions will be read from PARM file!
Info: SCNB (VDW SCALING)     2
Info: USING ARITHMETIC MEAN TO COMBINE L-J SIGMA PARAMETERS
Info: BINARY COORDINATES     mobley_5467162_min.coor
Info: SUMMARY OF PARAMETERS:
Info: 9 BONDS
Info: 9 ANGLES
Info:   9 HARMONIC
Info:   0 COSINE-BASED
Info: 6 DIHEDRAL
Info: 0 IMPROPER
Info: 0 CROSSTERM
Info: 0 VDW
Info: 36 VDW_PAIRS
Info: 0 NBTHOLE_PAIRS
Info: STRUCTURE SUMMARY:
Info: 5272 ATOMS
Info: 5272 BONDS
Info: 43 ANGLES
Info: 64 DIHEDRALS
Info: 0 IMPROPERS
Info: 0 CROSSTERMS
Info: 5371 EXCLUSIONS
Info: 5261 RIGID BONDS
Info: 10555 DEGREES OF FREEDOM
Info: 1760 HYDROGEN GROUPS
Info: 4 ATOMS IN LARGEST HYDROGEN GROUP
Info: 1760 MIGRATION GROUPS
Info: 4 ATOMS IN LARGEST MIGRATION GROUP
Info: TOTAL MASS = 31660.2 amu
Info: TOTAL CHARGE = -0.000499953 e
Info: MASS DENSITY = 0.730348 g/cm^3
Info: ATOM DENSITY = 0.0732373 atoms/A^3
Info: ADDED 0 IMPLICIT EXCLUSIONS
Info: NONBONDED TABLE R-SQUARED SPACING: 0.0625
Info: NONBONDED TABLE SIZE: 705 POINTS
Info: REMOVING COM VELOCITY 0.15189 0.0156498 0.0712673
TCL: Running for 25000 steps
ETITLE: TS BOND ANGLE DIHED IMPRP ELECT VDW BOUNDARY MISC KINETIC TOTAL TEMP POTENTIAL TOTAL3 TEMPAVG PRESSURE GPRESSURE VOLUME PRESSAVG GPRESSAVG
ENERGY: 0 1.1948 2.3246 2.6616 0.0000 -23973.3096 4008.7784 0.0000 0.0000 3144.8380 -16813.5121 299.8682 -19958.3502 -16812.9042 299.8682 -299.9873 -269.9449 71985.1391 -299.9873 -269.9449
ENERGY: 5000 1.3263 2.7953 2.4582 0.0000 -25246.2768 4305.5421 0.0000 0.0000 321.3021 -20612.8527 30.6370 -20934.1549 -20611.8674 47.9873 -156.4095 -94.1653 50557.1761 2.2821 2.1057
ENERGY: 10000 1.0118 3.2393 2.3848 0.0000 -25301.6993 4327.7316 0.0000 0.0000 315.7510 -20651.5810 30.1077 -20967.3320 -20650.9077 30.1543 -92.1720 -25.0059 50465.2320 8.2008 8.3073
ENERGY: 15000 0.9766 2.9804 2.2200 0.0000 -25353.4598 4348.8574 0.0000 0.0000 312.0261 -20686.3993 29.7525 -20998.4254 -20685.7120 30.1768 -44.8759 18.8413 50342.1194 4.3303 4.2381
ENERGY: 20000 0.8346 2.7122 2.1957 0.0000 -25533.9305 4517.8521 0.0000 0.0000 307.2153 -20703.1205 29.2938 -21010.3358 -20702.1390 29.9593 734.9951 816.3812 50147.6376 -2.2636 -2.3091
ENERGY: 25000 0.7723 2.7614 1.6399 0.0000 -25625.6489 4608.4002 0.0000 0.0000 309.3917 -20702.6833 29.5013 -21012.0750 -20701.5244 29.9882 1239.2214 1293.4161 49965.1257 4.6717 4.4801
TCL: Running 25000 steps at 60 kelvin.
TCL: Setting parameter langevinTemp to 60
TCL: Running for 25000 steps
ETITLE: TS BOND ANGLE DIHED IMPRP ELECT VDW BOUNDARY MISC KINETIC TOTAL TEMP POTENTIAL TOTAL3 TEMPAVG PRESSURE GPRESSURE VOLUME PRESSAVG GPRESSAVG
ENERGY: 25000 0.7723 2.7614 1.6399 0.0000 -25625.6489 4608.4002 0.0000 0.0000 309.2341 -20702.8410 29.4862 -21012.0751 -20702.1061 29.4862 1229.9198 1293.5272 49965.1257 1229.9198 1293.5272
ENERGY: 30000 2.1175 4.9387 1.9439 0.0000 -24860.9021 4134.2293 0.0000 0.0000 643.2736 -20074.3991 61.3378 -20717.6726 -20072.9074 56.9658 -570.2650 -512.1637 50922.6819 0.7545 0.7960
ENERGY: 35000 2.7229 3.7889 2.7409 0.0000 -24930.7991 4177.7884 0.0000 0.0000 607.4870 -20136.2710 57.9254 -20743.7580 -20135.6425 60.3246 -315.2521 -251.6178 50634.6486 6.0407 6.1764
ENERGY: 40000 1.7426 3.3165 2.0055 0.0000 -25040.3876 4250.5414 0.0000 0.0000 640.7259 -20142.0556 61.0948 -20782.7815 -20141.1108 60.1426 -23.4494 -3.4327 50673.1629 4.4804 4.4653
ENERGY: 45000 1.1724 3.8466 2.0771 0.0000 -25087.3447 4268.7927 0.0000 0.0000 635.3117 -20176.1442 60.5786 -20811.4559 -20174.7349 59.9895 -24.3837 29.2137 50529.5049 -0.0842 0.0203
ENERGY: 50000 0.9877 4.4882 2.3483 0.0000 -25022.2440 4184.0599 0.0000 0.0000 635.8886 -20194.4713 60.6336 -20830.3599 -20192.8569 60.1840 -485.2482 -445.2801 50585.9232 6.2225 6.4585
TCL: Running 25000 steps at 90 kelvin.
TCL: Setting parameter langevinTemp to 90
TCL: Running for 25000 steps
ETITLE: TS BOND ANGLE DIHED IMPRP ELECT VDW BOUNDARY MISC KINETIC TOTAL TEMP POTENTIAL TOTAL3 TEMPAVG PRESSURE GPRESSURE VOLUME PRESSAVG GPRESSAVG
ENERGY: 50000 0.9877 4.4882 2.3483 0.0000 -25022.2440 4184.0599 0.0000 0.0000 635.5886 -20194.7713 60.6050 -20830.3599 -20193.2330 60.6050 -498.3341 -445.4395 50585.9232 -498.3341 -445.4395
ENERGY: 55000 1.7518 5.9466 3.5065 0.0000 -24594.1013 4075.4231 0.0000 0.0000 942.9398 -19564.5335 89.9117 -20507.4733 -19562.7389 86.9743 -347.1531 -276.9622 50921.0496 3.6983 3.8551
ENERGY: 60000 2.2884 4.5185 3.3518 0.0000 -24616.3999 4031.7049 0.0000 0.0000 967.6831 -19606.8532 92.2710 -20574.5363 -19605.1744 89.9772 -634.5228 -604.2052 51013.2651 4.1567 4.5124
ENERGY: 65000 1.7470 5.2105 2.7416 0.0000 -24719.6166 4142.4510 0.0000 0.0000 956.1907 -19611.2758 91.1752 -20567.4665 -19609.6930 89.7477 -54.2106 -47.8707 50683.3172 2.6227 2.5731
ENERGY: 70000 1.5843 3.6591 2.5934 0.0000 -24817.1727 4182.2150 0.0000 0.0000 946.2793 -19680.8416 90.2301 -20627.1210 -19677.8466 89.8516 -11.9882 14.7512 50671.5163 4.6059 4.6876
ENERGY: 75000 0.7860 5.3921 3.7653 0.0000 -24902.1903 4272.7189 0.0000 0.0000 952.9002 -19666.6278 90.8614 -20619.5280 -19663.9051 90.8824 427.8833 485.8192 50559.5596 2.8209 2.6601
TCL: Running 25000 steps at 120 kelvin.
TCL: Setting parameter langevinTemp to 120
TCL: Running for 25000 steps
ETITLE: TS BOND ANGLE DIHED IMPRP ELECT VDW BOUNDARY MISC KINETIC TOTAL TEMP POTENTIAL TOTAL3 TEMPAVG PRESSURE GPRESSURE VOLUME PRESSAVG GPRESSAVG
ENERGY: 75000 0.7860 5.3921 3.7653 0.0000 -24902.1903 4272.7189 0.0000 0.0000 952.4334 -19667.0946 90.8169 -20619.5280 -19665.2211 90.8169 435.2511 486.0639 50559.5596 435.2511 486.0639
ENERGY: 80000 1.5314 5.9592 3.2892 0.0000 -24421.0961 4118.2406 0.0000 0.0000 1270.4237 -19021.6518 121.1381 -20292.0755 -19020.2762 117.1682 385.1131 442.5287 50672.0672 3.9827 4.1855
ENERGY: 85000 2.1870 7.1194 4.2204 0.0000 -24420.9152 4095.5401 0.0000 0.0000 1269.8983 -19041.9501 121.0880 -20311.8483 -19040.6501 119.6033 122.0051 171.5290 50860.6556 -3.1665 -2.9779
ENERGY: 90000 4.5425 6.2522 2.8923 0.0000 -24569.5026 4190.8656 0.0000 0.0000 1270.6897 -19094.2603 121.1635 -20364.9499 -19092.4482 120.6098 429.4290 469.1851 50905.0620 4.3284 4.4080
ENERGY: 95000 2.2349 6.1911 3.2156 0.0000 -24458.5169 4067.5839 0.0000 0.0000 1241.4243 -19137.8672 118.3729 -20379.2914 -19133.9498 120.1128 -147.8379 -77.9646 50962.7298 2.3889 2.7039
ENERGY: 100000 1.8958 4.5286 2.4132 0.0000 -24558.5562 4148.0346 0.0000 0.0000 1257.7551 -19143.9290 119.9301 -20401.6841 -19140.2427 120.1515 353.9207 357.2651 50615.9584 4.2282 4.1306
TCL: Running 25000 steps at 150 kelvin.
TCL: Setting parameter langevinTemp to 150
TCL: Running for 25000 steps
ETITLE: TS BOND ANGLE DIHED IMPRP ELECT VDW BOUNDARY MISC KINETIC TOTAL TEMP POTENTIAL TOTAL3 TEMPAVG PRESSURE GPRESSURE VOLUME PRESSAVG GPRESSAVG
ENERGY: 100000 1.8958 4.5286 2.4132 0.0000 -24558.5562 4148.0346 0.0000 0.0000 1257.1054 -19144.5787 119.8682 -20401.6841 -19142.0173 119.8682 309.8058 357.6911 50615.9584 309.8058 357.6911
ENERGY: 105000 2.1943 8.3014 3.3066 0.0000 -23962.6191 3997.2376 0.0000 0.0000 1586.2661 -18365.3131 151.2545 -19951.5792 -18361.3218 146.1401 402.4599 450.8071 51030.7433 8.5515 8.5454
ENERGY: 110000 4.4731 8.3482 2.8895 0.0000 -23979.8249 3945.4674 0.0000 0.0000 1610.2751 -18408.3717 153.5438 -20018.6468 -18402.4157 150.2774 20.6797 55.6759 51124.6405 2.0092 2.2397
ENERGY: 115000 4.9537 9.4291 3.0750 0.0000 -24042.3080 3978.1331 0.0000 0.0000 1544.8521 -18501.8651 147.3055 -20046.7172 -18498.8971 150.5231 176.4145 215.5369 50985.6875 -3.5026 -3.3700
ENERGY: 120000 2.4447 5.4423 2.6160 0.0000 -24013.3120 3947.3262 0.0000 0.0000 1583.4457 -18472.0370 150.9855 -20055.4827 -18467.6307 150.4720 -99.4747 -36.9183 51244.1911 5.6291 5.4165
ENERGY: 125000 3.6959 7.7801 2.3911 0.0000 -23922.9941 3836.8481 0.0000 0.0000 1561.9647 -18510.3142 148.9373 -20072.2789 -18505.8306 150.2116 -644.6754 -575.8627 51241.6610 0.5323 0.6444
TCL: Running 50000 steps at 180 kelvin.
TCL: Setting parameter langevinTemp to 180
TCL: Running for 50000 steps
ETITLE: TS BOND ANGLE DIHED IMPRP ELECT VDW BOUNDARY MISC KINETIC TOTAL TEMP POTENTIAL TOTAL3 TEMPAVG PRESSURE GPRESSURE VOLUME PRESSAVG GPRESSAVG
ENERGY: 125000 3.6959 7.7801 2.3911 0.0000 -23922.9941 3836.8481 0.0000 0.0000 1561.1682 -18511.1107 148.8613 -20072.2789 -18508.0695 148.8613 -629.2408 -575.5518 51241.6610 -629.2408 -575.5518
ENERGY: 135000 2.3487 6.3869 3.1875 0.0000 -23359.5629 3765.7745 0.0000 0.0000 1891.2403 -17690.6250 180.3345 -19581.8652 -17683.9845 180.1807 147.2372 161.7322 51323.9915 8.6865 8.8860
ENERGY: 145000 5.3535 8.0673 3.3904 0.0000 -23276.3470 3727.3077 0.0000 0.0000 1909.7036 -17622.5245 182.0950 -19532.2281 -17618.6910 180.2064 -68.0937 -11.1181 51428.2265 0.4131 0.5665
ENERGY: 155000 3.4259 6.2740 2.5886 0.0000 -23303.7662 3766.9850 0.0000 0.0000 1883.3012 -17641.1916 179.5775 -19524.4927 -17634.6878 181.1169 117.6681 214.0985 50975.8916 5.9566 5.3962
ENERGY: 165000 2.8960 7.8254 3.8469 0.0000 -23202.7818 3663.6944 0.0000 0.0000 1907.8412 -17616.6779 181.9175 -19524.5191 -17613.3558 179.1922 -333.7019 -255.4903 51382.4172 0.6469 0.7586
ENERGY: 175000 2.2076 6.6457 3.0087 0.0000 -23313.0681 3720.0828 0.0000 0.0000 1906.9017 -17674.2216 181.8279 -19581.1233 -17668.7136 178.6405 -262.3675 -184.6912 51640.5649 2.7612 2.8933
TCL: Running 50000 steps at 210 kelvin.
TCL: Setting parameter langevinTemp to 210
TCL: Running for 50000 steps
ETITLE: TS BOND ANGLE DIHED IMPRP ELECT VDW BOUNDARY MISC KINETIC TOTAL TEMP POTENTIAL TOTAL3 TEMPAVG PRESSURE GPRESSURE VOLUME PRESSAVG GPRESSAVG
ENERGY: 175000 2.2076 6.6457 3.0087 0.0000 -23313.0681 3720.0828 0.0000 0.0000 1905.9247 -17675.1986 181.7347 -19581.1233 -17671.9328 181.7347 -249.1847 -184.0411 51640.5649 -249.1847 -184.0411
ENERGY: 185000 5.0292 11.0875 3.5894 0.0000 -22281.2265 3397.7410 0.0000 0.0000 2174.0747 -16689.7047 207.3035 -18863.7794 -16682.7945 209.3696 -205.7972 -131.9792 51748.7015 6.5006 6.4002
ENERGY: 195000 2.7637 6.4918 3.7206 0.0000 -22317.2777 3507.2615 0.0000 0.0000 2174.6699 -16622.3702 207.3602 -18797.0400 -16616.5451 209.6088 513.1913 624.6107 51305.0889 4.6023 5.0074
ENERGY: 205000 3.6877 9.9392 3.4558 0.0000 -22164.2809 3336.8105 0.0000 0.0000 2200.5659 -16609.8218 209.8295 -18810.3877 -16605.7450 209.0856 -436.7037 -366.6639 51634.7288 3.7210 3.9173
ENERGY: 215000 3.4860 4.3585 3.9917 0.0000 -22325.8547 3547.4753 0.0000 0.0000 2150.5246 -16616.0187 205.0579 -18766.5433 -16609.4478 209.7574 830.1011 893.4238 51157.3052 0.7739 0.4212
ENERGY: 225000 4.6398 7.6045 6.1259 0.0000 -22270.5739 3379.2250 0.0000 0.0000 2186.5288 -16686.4498 208.4910 -18872.9787 -16682.7300 209.9636 -224.9731 -147.5411 51283.1979 0.6367 1.2049
TCL: Running 50000 steps at 240 kelvin.
TCL: Setting parameter langevinTemp to 240
TCL: Running for 50000 steps
ETITLE: TS BOND ANGLE DIHED IMPRP ELECT VDW BOUNDARY MISC KINETIC TOTAL TEMP POTENTIAL TOTAL3 TEMPAVG PRESSURE GPRESSURE VOLUME PRESSAVG GPRESSAVG
ENERGY: 225000 4.6398 7.6045 6.1259 0.0000 -22270.5739 3379.2250 0.0000 0.0000 2185.4491 -16687.5296 208.3881 -18872.9787 -16683.6114 208.3881 -233.9857 -148.3561 51283.1979 -233.9857 -148.3561
ENERGY: 235000 1.0521 8.4515 4.3298 0.0000 -20976.6928 3031.2428 0.0000 0.0000 2527.7925 -15403.8241 241.0314 -17931.6166 -15400.1125 238.6319 -135.7462 -27.2143 52090.3360 6.0264 5.8945
ENERGY: 245000 2.5124 7.5753 4.2415 0.0000 -21198.3804 3072.0323 0.0000 0.0000 2472.6644 -15639.3544 235.7748 -18112.0188 -15633.2461 239.5614 -219.0589 -146.2436 51957.5282 3.2763 3.8097
ENERGY: 255000 3.8467 10.8215 3.7612 0.0000 -21038.2313 2987.8769 0.0000 0.0000 2539.7832 -15492.1418 242.1747 -18031.9251 -15485.5268 241.4668 -306.4306 -239.0747 51651.7619 -1.9102 -1.9969
ENERGY: 265000 2.4100 10.2592 4.1771 0.0000 -21013.2273 3032.3646 0.0000 0.0000 2460.0925 -15503.9239 234.5760 -17964.0164 -15499.0387 239.6822 -79.5997 -54.3711 52108.8419 0.9446 1.2089
ENERGY: 275000 5.2634 9.1481 2.7580 0.0000 -21119.5984 3050.1878 0.0000 0.0000 2537.0100 -15515.2311 241.9103 -18052.2411 -15511.7252 239.6650 -253.6530 -166.6574 52179.4946 3.1721 3.2324
TCL: Running 50000 steps at 270 kelvin.
TCL: Setting parameter langevinTemp to 270
TCL: Running for 50000 steps
ETITLE: TS BOND ANGLE DIHED IMPRP ELECT VDW BOUNDARY MISC KINETIC TOTAL TEMP POTENTIAL TOTAL3 TEMPAVG PRESSURE GPRESSURE VOLUME PRESSAVG GPRESSAVG
ENERGY: 275000 5.2634 9.1481 2.7580 0.0000 -21119.5984 3050.1878 0.0000 0.0000 2535.7269 -15516.5143 241.7879 -18052.2411 -15511.9040 241.7879 -238.1209 -167.4097 52179.4946 -238.1209 -167.4097
ENERGY: 285000 2.3761 13.2985 4.6129 0.0000 -19910.0716 2681.2529 0.0000 0.0000 2787.1983 -14421.3328 265.7664 -17208.5312 -14413.0720 271.0791 -448.9388 -403.2848 52980.9678 7.0681 7.2381
ENERGY: 295000 2.3593 9.5199 4.3928 0.0000 -20094.7656 2826.7327 0.0000 0.0000 2879.1551 -14372.6058 274.5347 -17251.7609 -14366.6274 268.3775 134.4560 194.3243 52951.9355 1.3152 0.8957
ENERGY: 305000 3.0840 10.4870 5.0369 0.0000 -20047.7417 2778.5964 0.0000 0.0000 2853.9262 -14396.6112 272.1290 -17250.5374 -14392.3228 269.6962 -30.6513 29.9871 52857.0529 2.1447 2.3656
ENERGY: 315000 2.7471 5.3425 4.2775 0.0000 -20158.7933 2859.3519 0.0000 0.0000 2829.5186 -14457.5558 269.8017 -17287.0744 -14452.9764 269.3650 68.5824 107.9398 53282.4160 3.8728 3.2128
ENERGY: 325000 3.4400 8.8281 4.5931 0.0000 -20174.5611 2870.7895 0.0000 0.0000 2798.3025 -14488.6080 266.8252 -17286.9105 -14482.9343 267.9728 295.4078 384.7567 52689.6285 6.1423 5.7307
TCL: Running 1000000 steps at 300 kelvin.
TCL: Setting parameter langevinTemp to 300
TCL: Running for 1000000 steps
ETITLE: TS BOND ANGLE DIHED IMPRP ELECT VDW BOUNDARY MISC KINETIC TOTAL TEMP POTENTIAL TOTAL3 TEMPAVG PRESSURE GPRESSURE VOLUME PRESSAVG GPRESSAVG
ENERGY: 325000 3.4400 8.8281 4.5931 0.0000 -20174.5611 2870.7895 0.0000 0.0000 2796.9112 -14489.9994 266.6925 -17286.9105 -14485.7324 266.6925 295.4824 383.8332 52689.6285 295.4824 383.8332
ENERGY: 525000 4.8689 17.9549 3.8291 0.0000 -19270.1656 2625.6216 0.0000 0.0000 3081.4051 -13536.4860 293.8197 -16617.8911 -13530.2706 301.3109 92.9663 209.3016 54102.7291 3.1926 3.2464
ENERGY: 725000 4.7206 14.1486 6.5090 0.0000 -19203.2236 2585.8162 0.0000 0.0000 3137.4039 -13454.6253 299.1594 -16592.0292 -13447.4217 300.0835 -190.1991 -75.4182 54704.3707 2.7755 2.5074
ENERGY: 925000 2.9218 9.9539 4.0045 0.0000 -19052.3532 2471.1341 0.0000 0.0000 3135.2628 -13429.0761 298.9552 -16564.3389 -13422.1531 299.5240 -502.0136 -389.5565 53953.3934 2.5339 2.9820
ENERGY: 1125000 3.4537 9.2678 3.1622 0.0000 -18855.1274 2413.9889 0.0000 0.0000 3118.9440 -13306.3108 297.3991 -16425.2547 -13300.1639 300.8459 -657.6208 -566.5364 54881.3252 2.5137 2.3195
ENERGY: 1325000 3.6809 8.5155 6.1535 0.0000 -19165.8180 2563.9491 0.0000 0.0000 3160.4596 -13423.0593 301.3578 -16583.5189 -13415.7028 300.2469 -39.9933 85.6087 54058.4126 6.0570 6.0137
TCL: Exiting due to exit command.
