Info: SIMULATION PARAMETERS:
Info: TIMESTEP               2
Info: NUMBER OF STEPS        0
Info: STEPS PER CYCLE        10
Info: PERIODIC CELL BASIS 1  40.176 0 0
Info: PERIODIC CELL BASIS 2  0 39.115 0
Info: PERIODIC CELL BASIS 3  0 0 41.374
Info: PERIODIC CELL CENTER   0 0 0
Info: WRAPPING WATERS AROUND PERIODIC BOUNDARIES ON OUTPUT.
Info: WRAPPING ALL CLUSTERS AROUND PERIODIC BOUNDARIES ON OUTPUT.
Info: FIRST LDB TIMESTEP     50
Info: LAST LDB TIMESTEP     -1
Info: HOM BACKGROUND SCALING 1
Info: PME BACKGROUND SCALING 1
Info: MIN ATOMS PER PATCH    40
Info: EMPTY PATCH LOAD       40 ATOMS
Info: INITIAL TEMPERATURE    300
Info: CENTER OF MASS MOVING INITIALLY? NO
Info: DIELECTRIC             1
Info: EXCLUDE                SCALED ONE-FOUR
Info: 1-4 ELECTROSTATICS SCALED BY 0.833333
Info: MODIFIED 1-4 VDW PARAMETERS WILL BE USED
Info: DCD FILENAME           mobley_5973402_min.dcd
Info: DCD FREQUENCY          5000
Info: DCD FIRST STEP         5000
Info: DCD FILE WILL CONTAIN UNIT CELL DATA
Info: XST FILENAME           mobley_5973402_min.xst
Info: XST FREQUENCY          5000
Info: NO VELOCITY DCD OUTPUT
Info: NO FORCE DCD OUTPUT
Info: OUTPUT FILENAME        mobley_5973402_min
Info: BINARY OUTPUT FILES WILL BE USED
Info: RESTART FILENAME       mobley_5973402_min.restart
Info: RESTART FREQUENCY      5000
Info: BINARY RESTART FILES WILL BE USED
Info: CUTOFF                 9
Info: PAIRLIST DISTANCE      11
Info: PAIRLIST SHRINK RATE   0.01
Info: PAIRLIST GROW RATE     0.01
Info: PAIRLIST TRIGGER       0.3
Info: PAIRLISTS PER CYCLE    2
Info: PAIRLISTS ENABLED
Info: MARGIN                 8
Info: HYDROGEN GROUP CUTOFF  2.5
Info: PATCH DIMENSION        21.5
Info: ENERGY OUTPUT STEPS    5000
Info: ENERGY EVALUATION STEPS    5000
Info: OUTPUT ENERGY PRECISION 4
Info: CROSSTERM ENERGY INCLUDED IN DIHEDRAL
Info: TIMING OUTPUT STEPS    50000
Info: PRESSURE OUTPUT STEPS  5000
Info: LANGEVIN DYNAMICS ACTIVE
Info: LANGEVIN TEMPERATURE   300
Info: LANGEVIN USING BBK INTEGRATOR
Info: LANGEVIN DAMPING COEFFICIENT IS 1 INVERSE PS
Info: LANGEVIN DYNAMICS APPLIED TO HYDROGENS
Info: LANGEVIN PISTON PRESSURE CONTROL ACTIVE
Info:        TARGET PRESSURE IS 1.01325 BAR
Info:     OSCILLATION PERIOD IS 50 FS
Info:             DECAY TIME IS 25 FS
Info:     PISTON TEMPERATURE IS 300 K
Info:       PRESSURE CONTROL IS GROUP-BASED
Info:    INITIAL STRAIN RATE IS 0 0 0
Info:       CELL FLUCTUATION IS ISOTROPIC
Info: PARTICLE MESH EWALD (PME) ACTIVE
Info: PME TOLERANCE               1e-06
Info: PME EWALD COEFFICIENT       0.348832
Info: PME INTERPOLATION ORDER     4
Info: PME GRID DIMENSIONS         44 40 44
Info: PME MAXIMUM GRID SPACING    1
Info: FULL ELECTROSTATIC EVALUATION FREQUENCY      2
Info: USING VERLET I (r-RESPA) MTS SCHEME.
Info: C1 SPLITTING OF LONG RANGE ELECTROSTATICS
Info: PLACING ATOMS IN PATCHES BY HYDROGEN GROUPS
Info: RIGID BONDS TO HYDROGEN : ALL
Info:         ERROR TOLERANCE : 1e-08
Info:          MAX ITERATIONS : 100
Info: RIGID WATER USING SETTLE ALGORITHM
Info: RANDOM NUMBER SEED     1741348357
Info: USE HYDROGEN BONDS?    NO
Info: Using AMBER format force field!
Info: AMBER PARM FILE        mobley_5973402.prmtop
Info: COORDINATE PDB         mobley_5973402.pdb
Info: Exclusions will be read from PARM file!
Info: SCNB (VDW SCALING)     2
Info: USING ARITHMETIC MEAN TO COMBINE L-J SIGMA PARAMETERS
Info: SUMMARY OF PARAMETERS:
Info: 7 BONDS
Info: 8 ANGLES
Info:   8 HARMONIC
Info:   0 COSINE-BASED
Info: 8 DIHEDRAL
Info: 0 IMPROPER
Info: 0 CROSSTERM
Info: 0 VDW
Info: 28 VDW_PAIRS
Info: 0 NBTHOLE_PAIRS
Info: STRUCTURE SUMMARY:
Info: 4710 ATOMS
Info: 4709 BONDS
Info: 31 ANGLES
Info: 39 DIHEDRALS
Info: 0 IMPROPERS
Info: 0 CROSSTERMS
Info: 4779 EXCLUSIONS
Info: 4704 RIGID BONDS
Info: 9426 DEGREES OF FREEDOM
Info: 1570 HYDROGEN GROUPS
Info: 4 ATOMS IN LARGEST HYDROGEN GROUP
Info: 1570 MIGRATION GROUPS
Info: 4 ATOMS IN LARGEST MIGRATION GROUP
Info: TOTAL MASS = 28265.2 amu
Info: TOTAL CHARGE = -9.99942e-05 e
Info: MASS DENSITY = 0.721894 g/cm^3
Info: ATOM DENSITY = 0.0724408 atoms/A^3
Info: ADDED 0 IMPLICIT EXCLUSIONS
Info: NONBONDED TABLE R-SQUARED SPACING: 0.0625
Info: NONBONDED TABLE SIZE: 705 POINTS
Info: REMOVING COM VELOCITY 0.00593798 0.117092 -0.108418
TCL: Minimizing for 2000 steps
ETITLE: TS BOND ANGLE DIHED IMPRP ELECT VDW BOUNDARY MISC KINETIC TOTAL TEMP POTENTIAL TOTAL3 TEMPAVG PRESSURE GPRESSURE VOLUME PRESSAVG GPRESSAVG
ENERGY: 0 0.0431 0.9185 0.0441 0.0000 -14732.3474 1696.4778 0.0000 0.0000 0.0000 -13034.8639 0.0000 -13034.8639 -13034.8639 0.0000 11316.0116 -15755.4452 65018.5889 11316.0116 -15755.4452
ENERGY: 400 2.6501 5.8204 0.3360 0.0000 -19901.1347 3001.8312 0.0000 0.0000 0.0000 -16890.4970 0.0000 -16890.4970 -16890.4970 0.0000 16431.8707 16193.5621 65018.5889 16431.8707 16193.5621
ENERGY: 800 0.9176 1.4926 0.2203 0.0000 -20927.2448 3461.7884 0.0000 0.0000 0.0000 -17462.8260 0.0000 -17462.8260 -17462.8260 0.0000 18722.1680 18513.6401 65018.5889 18722.1680 18513.6401
ENERGY: 1200 0.2830 1.0528 0.1540 0.0000 -21248.4166 3612.5265 0.0000 0.0000 0.0000 -17634.4004 0.0000 -17634.4004 -17634.4004 0.0000 19483.3119 19231.9161 65018.5889 19483.3119 19231.9161
ENERGY: 1600 0.2264 0.7192 0.1551 0.0000 -21410.9379 3683.2878 0.0000 0.0000 0.0000 -17726.5495 0.0000 -17726.5495 -17726.5495 0.0000 19890.4545 19697.3522 65018.5889 19890.4545 19697.3522
ENERGY: 2000 0.4144 0.7007 0.4616 0.0000 -21555.9839 3756.9639 0.0000 0.0000 0.0000 -17797.4432 0.0000 -17797.4432 -17797.4432 0.0000 20279.9202 20062.8763 65018.5889 20279.9202 20062.8763
TCL: Exiting due to exit command.
Info: NAMD 3.0.1 for Linux-x86_64-multicore
Info: Please visit http://www.ks.uiuc.edu/Research/namd/
Info: for updates, documentation, and support information.
Info: Please cite Phillips et al., J. Chem. Phys. 153:044130 (2020) doi:10.1063/5.0014475
Info: in all publications reporting results obtained with NAMD.
Info: Based on Charm++/Converse 80000 for multicore-linux-x86_64-gcc
Info: Built Mon Oct 14 11:11:06 CDT 2024 by dhardy on athine.ks.uiuc.edu
Info: 1 NAMD  3.0.1  Linux-x86_64-multicore  16    k012  z5358697
Info: Running on 16 processors, 1 nodes, 1 physical nodes.
Info: CPU topology information available.
Info: Charm++/Converse parallel runtime startup completed at 0.00901621 s
Info: 1043.45 MB of memory in use based on /proc/self/stat
Info: Configuration file is mobley_5973402_equil.namd
Info: Working in the current directory /srv/scratch/z5358697/prod_prep_7/5973402
TCL: Running 25000 steps at 30 kelvin.
TCL: Suspending until startup complete.
Info: SIMULATION PARAMETERS:
Info: TIMESTEP               2
Info: NUMBER OF STEPS        0
Info: STEPS PER CYCLE        10
Info: PERIODIC CELL BASIS 1  40.176 0 0
Info: PERIODIC CELL BASIS 2  0 39.115 0
Info: PERIODIC CELL BASIS 3  0 0 41.374
Info: PERIODIC CELL CENTER   0 0 0
Info: WRAPPING WATERS AROUND PERIODIC BOUNDARIES ON OUTPUT.
Info: WRAPPING ALL CLUSTERS AROUND PERIODIC BOUNDARIES ON OUTPUT.
Info: FIRST LDB TIMESTEP     50
Info: LAST LDB TIMESTEP     -1
Info: HOM BACKGROUND SCALING 1
Info: PME BACKGROUND SCALING 1
Info: MIN ATOMS PER PATCH    40
Info: EMPTY PATCH LOAD       40 ATOMS
Info: INITIAL TEMPERATURE    300
Info: CENTER OF MASS MOVING INITIALLY? NO
Info: DIELECTRIC             1
Info: EXCLUDE                SCALED ONE-FOUR
Info: 1-4 ELECTROSTATICS SCALED BY 0.833333
Info: MODIFIED 1-4 VDW PARAMETERS WILL BE USED
Info: DCD FILENAME           mobley_5973402_equil.dcd
Info: DCD FREQUENCY          5000
Info: DCD FIRST STEP         5000
Info: DCD FILE WILL CONTAIN UNIT CELL DATA
Info: XST FILENAME           mobley_5973402_equil.xst
Info: XST FREQUENCY          5000
Info: NO VELOCITY DCD OUTPUT
Info: NO FORCE DCD OUTPUT
Info: OUTPUT FILENAME        mobley_5973402_equil
Info: BINARY OUTPUT FILES WILL BE USED
Info: RESTART FILENAME       mobley_5973402_equil.restart
Info: RESTART FREQUENCY      5000
Info: BINARY RESTART FILES WILL BE USED
Info: CUTOFF                 9
Info: PAIRLIST DISTANCE      11
Info: PAIRLIST SHRINK RATE   0.01
Info: PAIRLIST GROW RATE     0.01
Info: PAIRLIST TRIGGER       0.3
Info: PAIRLISTS PER CYCLE    2
Info: PAIRLISTS ENABLED
Info: MARGIN                 8
Info: HYDROGEN GROUP CUTOFF  2.5
Info: PATCH DIMENSION        21.5
Info: ENERGY OUTPUT STEPS    5000
Info: ENERGY EVALUATION STEPS    5000
Info: OUTPUT ENERGY PRECISION 4
Info: CROSSTERM ENERGY INCLUDED IN DIHEDRAL
Info: TIMING OUTPUT STEPS    50000
Info: PRESSURE OUTPUT STEPS  5000
Info: LANGEVIN DYNAMICS ACTIVE
Info: LANGEVIN TEMPERATURE   30
Info: LANGEVIN USING BBK INTEGRATOR
Info: LANGEVIN DAMPING COEFFICIENT IS 1 INVERSE PS
Info: LANGEVIN DYNAMICS APPLIED TO HYDROGENS
Info: LANGEVIN PISTON PRESSURE CONTROL ACTIVE
Info:        TARGET PRESSURE IS 1.01325 BAR
Info:     OSCILLATION PERIOD IS 50 FS
Info:             DECAY TIME IS 25 FS
Info:     PISTON TEMPERATURE IS 300 K
Info:       PRESSURE CONTROL IS GROUP-BASED
Info:    INITIAL STRAIN RATE IS 0 0 0
Info:       CELL FLUCTUATION IS ISOTROPIC
Info: PARTICLE MESH EWALD (PME) ACTIVE
Info: PME TOLERANCE               1e-06
Info: PME EWALD COEFFICIENT       0.348832
Info: PME INTERPOLATION ORDER     4
Info: PME GRID DIMENSIONS         44 40 44
Info: PME MAXIMUM GRID SPACING    1
Info: FULL ELECTROSTATIC EVALUATION FREQUENCY      2
Info: USING VERLET I (r-RESPA) MTS SCHEME.
Info: C1 SPLITTING OF LONG RANGE ELECTROSTATICS
Info: PLACING ATOMS IN PATCHES BY HYDROGEN GROUPS
Info: RIGID BONDS TO HYDROGEN : ALL
Info:         ERROR TOLERANCE : 1e-08
Info:          MAX ITERATIONS : 100
Info: RIGID WATER USING SETTLE ALGORITHM
Info: RANDOM NUMBER SEED     1741348374
Info: USE HYDROGEN BONDS?    NO
Info: Using AMBER format force field!
Info: AMBER PARM FILE        mobley_5973402.prmtop
Info: COORDINATE PDB         mobley_5973402.pdb
Info: Exclusions will be read from PARM file!
Info: SCNB (VDW SCALING)     2
Info: USING ARITHMETIC MEAN TO COMBINE L-J SIGMA PARAMETERS
Info: BINARY COORDINATES     mobley_5973402_min.coor
Info: SUMMARY OF PARAMETERS:
Info: 7 BONDS
Info: 8 ANGLES
Info: 8 DIHEDRAL
Info: 0 IMPROPER
Info: 0 CROSSTERM
Info: 0 VDW
Info: 28 VDW_PAIRS
Info: 0 NBTHOLE_PAIRS
Info: STRUCTURE SUMMARY:
Info: 4710 ATOMS
Info: 4709 BONDS
Info: 31 ANGLES
Info: 39 DIHEDRALS
Info: 0 IMPROPERS
Info: 0 CROSSTERMS
Info: 4779 EXCLUSIONS
Info: 4704 RIGID BONDS
Info: 9426 DEGREES OF FREEDOM
Info: 1570 HYDROGEN GROUPS
Info: 4 ATOMS IN LARGEST HYDROGEN GROUP
Info: 1570 MIGRATION GROUPS
Info: 4 ATOMS IN LARGEST MIGRATION GROUP
Info: TOTAL MASS = 28265.2 amu
Info: TOTAL CHARGE = -9.99942e-05 e
Info: MASS DENSITY = 0.721894 g/cm^3
Info: ATOM DENSITY = 0.0724408 atoms/A^3
Info: ADDED 0 IMPLICIT EXCLUSIONS
Info: NONBONDED TABLE R-SQUARED SPACING: 0.0625
Info: NONBONDED TABLE SIZE: 705 POINTS
Info: REMOVING COM VELOCITY 0.061058 0.128973 0.0269574
TCL: Running for 25000 steps
ETITLE: TS BOND ANGLE DIHED IMPRP ELECT VDW BOUNDARY MISC KINETIC TOTAL TEMP POTENTIAL TOTAL3 TEMPAVG PRESSURE GPRESSURE VOLUME PRESSAVG GPRESSAVG
ENERGY: 0 0.4144 0.7007 0.4616 0.0000 -21555.9839 3756.9639 0.0000 0.0000 2791.5495 -15005.8937 298.0631 -17797.4432 -15005.3171 298.0631 465.4268 498.7513 65018.5889 465.4268 498.7513
ENERGY: 5000 0.5348 1.0078 0.2509 0.0000 -22655.8278 3940.7095 0.0000 0.0000 281.1482 -18432.1766 30.0191 -18713.3248 -18431.5429 48.3583 92.6056 144.5981 45369.8913 1.5815 1.4846
ENERGY: 10000 0.4241 1.1405 0.2463 0.0000 -22592.8405 3852.0107 0.0000 0.0000 285.5231 -18453.4959 30.4863 -18739.0190 -18452.6830 30.4551 -427.6937 -357.6727 45493.4255 -0.7867 -0.5221
ENERGY: 15000 0.0802 1.1973 0.3398 0.0000 -22758.0629 4000.8977 0.0000 0.0000 280.2012 -18475.3468 29.9180 -18755.5480 -18474.5711 30.0003 406.0664 475.8120 45154.5209 4.6540 4.4752
ENERGY: 20000 0.2726 1.5444 0.4718 0.0000 -22675.4307 3916.9332 0.0000 0.0000 278.0941 -18478.1146 29.6930 -18756.2087 -18477.4843 29.8412 -115.1362 -57.9012 45395.0052 2.3818 2.1555
ENERGY: 25000 0.3055 1.1084 0.1965 0.0000 -22662.2779 3887.4944 0.0000 0.0000 278.2554 -18494.9178 29.7103 -18773.1731 -18494.2784 29.9411 -311.2887 -267.7501 45408.3144 2.4554 2.2372
TCL: Running 25000 steps at 60 kelvin.
TCL: Setting parameter langevinTemp to 60
TCL: Running for 25000 steps
ETITLE: TS BOND ANGLE DIHED IMPRP ELECT VDW BOUNDARY MISC KINETIC TOTAL TEMP POTENTIAL TOTAL3 TEMPAVG PRESSURE GPRESSURE VOLUME PRESSAVG GPRESSAVG
ENERGY: 25000 0.3055 1.1084 0.1965 0.0000 -22662.2779 3887.4944 0.0000 0.0000 278.1176 -18495.0555 29.6956 -18773.1731 -18494.4310 29.6956 -322.5139 -267.8910 45408.3144 -322.5139 -267.8910
ENERGY: 30000 0.4668 2.2539 0.4366 0.0000 -22271.4904 3740.9871 0.0000 0.0000 562.3296 -17965.0163 60.0418 -18527.3460 -17963.4221 57.5415 -488.4709 -428.5262 45565.3082 0.7036 0.7564
ENERGY: 35000 0.8771 1.5698 0.2578 0.0000 -22454.0823 3898.7901 0.0000 0.0000 558.0185 -17994.5691 59.5815 -18552.5876 -17993.0900 60.4845 387.6711 428.1675 45250.1021 9.3091 9.4058
ENERGY: 40000 0.6682 2.0390 0.3222 0.0000 -22470.2622 3884.3985 0.0000 0.0000 554.3494 -18028.4848 59.1898 -18582.8342 -18028.0682 60.1181 217.0929 281.8329 45318.0529 2.1829 2.1230
ENERGY: 45000 0.2487 2.4504 0.3541 0.0000 -22446.0382 3838.2403 0.0000 0.0000 563.5751 -18041.1697 60.1748 -18604.7447 -18040.2021 60.1381 -41.8814 -11.0400 45349.5917 3.6751 3.2600
ENERGY: 50000 1.2798 1.7153 0.2651 0.0000 -22266.3639 3666.2438 0.0000 0.0000 566.0832 -18030.7768 60.4426 -18596.8600 -18028.5653 60.0008 -1022.5063 -945.2290 45648.1811 -1.9824 -1.8618
TCL: Running 25000 steps at 90 kelvin.
TCL: Setting parameter langevinTemp to 90
TCL: Running for 25000 steps
ETITLE: TS BOND ANGLE DIHED IMPRP ELECT VDW BOUNDARY MISC KINETIC TOTAL TEMP POTENTIAL TOTAL3 TEMPAVG PRESSURE GPRESSURE VOLUME PRESSAVG GPRESSAVG
ENERGY: 50000 1.2798 1.7153 0.2651 0.0000 -22266.3639 3666.2438 0.0000 0.0000 565.8032 -18031.0568 60.4127 -18596.8600 -18029.7523 60.4127 -999.1635 -945.0460 45648.1811 -999.1635 -945.0460
ENERGY: 55000 0.6748 2.9227 0.4234 0.0000 -22017.9609 3712.1608 0.0000 0.0000 831.7736 -17470.0056 88.8113 -18301.7792 -17467.4945 87.0311 40.5095 104.2692 45294.7233 1.8676 1.7377
ENERGY: 60000 0.3984 3.1982 0.6031 0.0000 -22127.0534 3790.9794 0.0000 0.0000 855.6720 -17476.2023 91.3630 -18331.8743 -17474.7466 89.7890 473.2736 502.4330 45239.2019 0.9080 0.4099
ENERGY: 65000 0.2088 3.3162 0.4263 0.0000 -22137.1495 3737.9055 0.0000 0.0000 842.6275 -17552.6653 89.9702 -18395.2928 -17550.1673 90.5201 -50.8125 9.7997 45395.0548 4.0685 4.2328
ENERGY: 70000 0.4581 3.2799 0.5300 0.0000 -22090.3673 3682.7706 0.0000 0.0000 847.4012 -17555.9276 90.4799 -18403.3288 -17553.3030 90.2183 -281.0665 -216.7327 45309.2311 0.8894 1.1099
ENERGY: 75000 0.4479 2.7545 0.6142 0.0000 -22192.1886 3761.4481 0.0000 0.0000 841.2798 -17585.6442 89.8263 -18426.9240 -17583.8584 90.7015 96.7114 157.4312 45120.1506 -0.5904 -0.3106
TCL: Running 25000 steps at 120 kelvin.
TCL: Setting parameter langevinTemp to 120
TCL: Running for 25000 steps
ETITLE: TS BOND ANGLE DIHED IMPRP ELECT VDW BOUNDARY MISC KINETIC TOTAL TEMP POTENTIAL TOTAL3 TEMPAVG PRESSURE GPRESSURE VOLUME PRESSAVG GPRESSAVG
ENERGY: 75000 0.4479 2.7545 0.6142 0.0000 -22192.1886 3761.4481 0.0000 0.0000 840.8704 -17586.0536 89.7826 -18426.9240 -17584.2346 89.7826 96.5670 157.3563 45120.1506 96.5670 157.3563
ENERGY: 80000 0.8018 3.1619 0.4599 0.0000 -21836.0188 3707.1156 0.0000 0.0000 1133.6850 -16990.7946 121.0474 -18124.4796 -16987.9667 117.1622 583.4384 654.4996 45141.9113 4.8111 4.5403
ENERGY: 85000 0.1363 2.6771 0.5473 0.0000 -21728.4071 3593.8097 0.0000 0.0000 1131.0972 -17000.1396 120.7711 -18131.2368 -16998.0493 121.1265 -155.3614 -105.9683 45460.8214 2.4590 2.1537
ENERGY: 90000 0.4002 3.7154 0.9489 0.0000 -21975.6378 3832.1484 0.0000 0.0000 1143.9470 -16994.4779 122.1431 -18138.4249 -16991.5786 120.2927 1114.8079 1142.2677 45104.5263 7.2432 7.1658
ENERGY: 95000 0.1771 4.0552 0.3626 0.0000 -21677.2829 3508.9096 0.0000 0.0000 1152.8182 -17010.9602 123.0903 -18163.7784 -17007.1626 120.6751 -769.8675 -714.4498 45646.9887 1.6564 1.7925
ENERGY: 100000 0.1759 3.9856 0.4279 0.0000 -21830.6889 3637.6771 0.0000 0.0000 1136.3757 -17052.0468 121.3347 -18188.4224 -17049.3963 119.8741 -3.4981 42.8851 45296.2113 2.1478 2.1083
TCL: Running 25000 steps at 150 kelvin.
TCL: Setting parameter langevinTemp to 150
TCL: Running for 25000 steps
ETITLE: TS BOND ANGLE DIHED IMPRP ELECT VDW BOUNDARY MISC KINETIC TOTAL TEMP POTENTIAL TOTAL3 TEMPAVG PRESSURE GPRESSURE VOLUME PRESSAVG GPRESSAVG
ENERGY: 100000 0.1759 3.9856 0.4279 0.0000 -21830.6889 3637.6771 0.0000 0.0000 1135.8289 -17052.5935 121.2763 -18188.4224 -17050.3181 121.2763 -11.2733 42.6605 45296.2113 -11.2733 42.6605
ENERGY: 105000 0.4798 4.3362 2.0796 0.0000 -21261.1170 3464.2602 0.0000 0.0000 1418.8562 -16371.1050 151.4961 -17789.9612 -16368.2865 146.9611 -155.6803 -94.4971 45805.3683 -0.5854 -0.3140
ENERGY: 110000 2.3808 3.4419 0.7312 0.0000 -21243.5784 3419.6415 0.0000 0.0000 1403.1645 -16414.2184 149.8206 -17817.3830 -16410.2892 151.4821 -626.9910 -527.2588 45996.1512 -0.2854 -0.5843
ENERGY: 115000 1.4433 4.7723 1.0589 0.0000 -21382.6723 3520.0619 0.0000 0.0000 1370.2153 -16485.1206 146.3025 -17855.3359 -16482.4058 150.7472 -124.7458 -40.1990 45881.9131 6.2371 6.3689
ENERGY: 120000 2.3689 4.4250 2.2617 0.0000 -21382.9318 3491.0626 0.0000 0.0000 1415.3599 -16467.4536 151.1227 -17882.8135 -16462.7775 150.2726 -412.6517 -365.9770 46251.9628 4.7839 4.6641
ENERGY: 125000 1.2109 2.6896 1.1924 0.0000 -21464.7242 3516.8368 0.0000 0.0000 1402.4252 -16540.3693 149.7417 -17942.7945 -16536.7453 149.3734 -283.4468 -239.2811 45985.6183 4.9367 5.2908
TCL: Running 50000 steps at 180 kelvin.
TCL: Setting parameter langevinTemp to 180
TCL: Running for 50000 steps
ETITLE: TS BOND ANGLE DIHED IMPRP ELECT VDW BOUNDARY MISC KINETIC TOTAL TEMP POTENTIAL TOTAL3 TEMPAVG PRESSURE GPRESSURE VOLUME PRESSAVG GPRESSAVG
ENERGY: 125000 1.2109 2.6896 1.1924 0.0000 -21464.7242 3516.8368 0.0000 0.0000 1401.7134 -16541.0811 149.6657 -17942.7945 -16538.3776 149.6657 -290.9566 -239.2288 45985.6183 -290.9566 -239.2288
ENERGY: 135000 1.4683 4.2147 0.8297 0.0000 -20849.5247 3354.3276 0.0000 0.0000 1734.9359 -15753.7485 185.2450 -17488.6844 -15749.0309 181.2652 -252.1653 -209.8752 46556.2167 0.2471 -0.0665
ENERGY: 145000 1.7219 4.2277 2.1967 0.0000 -20701.9376 3272.3065 0.0000 0.0000 1667.3770 -15754.1078 178.0315 -17421.4848 -15750.5936 179.8984 -482.0775 -390.4625 46424.6135 -0.2697 0.3033
ENERGY: 155000 1.3972 4.5029 0.6152 0.0000 -20980.9239 3437.8921 0.0000 0.0000 1657.1497 -15879.3669 176.9395 -17536.5166 -15875.5060 180.1853 235.5323 314.1295 46011.8169 2.1171 2.5353
ENERGY: 165000 2.2478 4.0289 1.8844 0.0000 -20804.2452 3283.5314 0.0000 0.0000 1684.3383 -15828.2145 179.8425 -17512.5528 -15824.4063 180.6407 -523.3470 -452.2137 46105.9108 1.1327 1.1713
ENERGY: 175000 0.6526 6.6550 0.8555 0.0000 -20950.0439 3391.7080 0.0000 0.0000 1696.4622 -15853.7106 181.1370 -17550.1728 -15849.5950 180.7510 15.5605 96.6443 45883.7739 1.7768 1.9364
TCL: Running 50000 steps at 210 kelvin.
TCL: Setting parameter langevinTemp to 210
TCL: Running for 50000 steps
ETITLE: TS BOND ANGLE DIHED IMPRP ELECT VDW BOUNDARY MISC KINETIC TOTAL TEMP POTENTIAL TOTAL3 TEMPAVG PRESSURE GPRESSURE VOLUME PRESSAVG GPRESSAVG
ENERGY: 175000 0.6526 6.6550 0.8555 0.0000 -20950.0439 3391.7080 0.0000 0.0000 1695.6465 -15854.5263 181.0499 -17550.1728 -15851.0464 181.0499 32.1759 97.0538 45883.7739 32.1759 97.0538
ENERGY: 185000 0.5915 4.6838 0.4426 0.0000 -19999.1074 3138.9588 0.0000 0.0000 1968.1419 -14886.2888 210.1451 -16854.4308 -14881.9310 210.0119 498.7884 554.3383 45819.3569 5.3067 5.7664
ENERGY: 195000 0.3930 5.5603 0.9701 0.0000 -19868.5980 3040.6526 0.0000 0.0000 1996.3795 -14824.6425 213.1602 -16821.0220 -14822.4704 210.1414 -125.5050 -53.9577 46153.7712 3.5971 3.1216
ENERGY: 205000 0.4593 3.6647 1.0979 0.0000 -19748.2001 2953.0616 0.0000 0.0000 2021.8274 -14768.0892 215.8773 -16789.9165 -14763.2566 211.0647 -378.5962 -316.2844 46380.4351 3.2611 3.4657
ENERGY: 215000 0.5022 5.1112 0.9110 0.0000 -19987.5101 3154.2654 0.0000 0.0000 1924.9503 -14901.7701 205.5334 -16826.7203 -14898.1595 210.0263 525.0676 606.6173 45866.0634 1.4302 1.1128
ENERGY: 225000 0.7257 6.2188 0.9172 0.0000 -19711.1342 2933.6695 0.0000 0.0000 1999.7567 -14769.8464 213.5208 -16769.6030 -14763.3283 209.4175 -502.7430 -413.0286 46114.9311 1.0680 1.3822
TCL: Running 50000 steps at 240 kelvin.
TCL: Setting parameter langevinTemp to 240
TCL: Running for 50000 steps
ETITLE: TS BOND ANGLE DIHED IMPRP ELECT VDW BOUNDARY MISC KINETIC TOTAL TEMP POTENTIAL TOTAL3 TEMPAVG PRESSURE GPRESSURE VOLUME PRESSAVG GPRESSAVG
ENERGY: 225000 0.7257 6.2188 0.9172 0.0000 -19711.1342 2933.6695 0.0000 0.0000 1998.7812 -14770.8218 213.4166 -16769.6030 -14767.9315 213.4166 -487.4420 -412.3398 46114.9311 -487.4420 -412.3398
ENERGY: 235000 0.4992 7.1348 1.0242 0.0000 -18763.2378 2665.4784 0.0000 0.0000 2219.7403 -13869.3609 237.0092 -16089.1012 -13864.6860 240.6966 -332.1687 -270.8233 46436.0557 -2.9101 -2.4082
ENERGY: 245000 0.1954 5.1128 0.9525 0.0000 -18897.1863 2706.9300 0.0000 0.0000 2309.2779 -13874.7178 246.5694 -16183.9956 -13869.5156 238.9072 -191.9152 -121.6157 45940.3061 5.2116 4.9218
ENERGY: 255000 0.5523 7.4300 2.1184 0.0000 -18720.4476 2623.2771 0.0000 0.0000 2234.5172 -13852.5526 238.5869 -16087.0698 -13847.4235 239.7875 -628.1797 -500.5883 46319.3156 3.2559 3.8696
ENERGY: 265000 1.2548 5.0503 1.1249 0.0000 -18777.1564 2679.5280 0.0000 0.0000 2210.9434 -13879.2550 236.0699 -16090.1984 -13872.5303 240.2791 -494.0321 -368.9115 46863.5554 1.3736 1.2658
ENERGY: 275000 2.1227 5.9137 0.5914 0.0000 -18730.0568 2731.7613 0.0000 0.0000 2205.8127 -13783.8549 235.5221 -15989.6676 -13780.5758 240.9623 92.9664 197.3926 46196.2126 3.8804 3.9481
TCL: Running 50000 steps at 270 kelvin.
TCL: Setting parameter langevinTemp to 270
TCL: Running for 50000 steps
ETITLE: TS BOND ANGLE DIHED IMPRP ELECT VDW BOUNDARY MISC KINETIC TOTAL TEMP POTENTIAL TOTAL3 TEMPAVG PRESSURE GPRESSURE VOLUME PRESSAVG GPRESSAVG
ENERGY: 275000 2.1227 5.9137 0.5914 0.0000 -18730.0568 2731.7613 0.0000 0.0000 2204.6884 -13784.9792 235.4020 -15989.6676 -13781.0813 235.4020 112.4322 195.7118 46196.2126 112.4322 195.7118
ENERGY: 285000 0.9680 5.3875 1.3424 0.0000 -17985.0704 2608.7711 0.0000 0.0000 2511.8978 -12856.7036 268.2038 -15368.6014 -12849.9562 269.8852 579.5251 655.4699 47424.1845 3.0325 3.5447
ENERGY: 295000 0.4398 9.8655 0.6651 0.0000 -17837.8080 2348.2725 0.0000 0.0000 2531.9147 -12946.6505 270.3411 -15478.5652 -12940.2107 269.5300 -809.7971 -767.4617 47166.7068 1.7124 2.1726
ENERGY: 305000 1.9923 8.5581 2.3543 0.0000 -17933.8486 2551.8090 0.0000 0.0000 2580.3654 -12788.7696 275.5143 -15369.1349 -12782.0095 271.3419 110.0485 253.5300 47385.7060 2.4065 2.2778
ENERGY: 315000 1.4037 4.5989 0.8282 0.0000 -17775.6385 2411.5103 0.0000 0.0000 2544.9419 -12812.3555 271.7320 -15357.2974 -12808.1254 270.6652 -376.9737 -302.2996 47376.4602 -1.7197 -0.8615
ENERGY: 325000 1.1803 6.7378 2.1063 0.0000 -17940.3350 2490.9104 0.0000 0.0000 2586.7594 -12852.6408 276.1970 -15439.4002 -12841.5671 271.7770 -209.3738 -97.6512 47157.4230 7.9136 7.5777
TCL: Running 1000000 steps at 300 kelvin.
TCL: Setting parameter langevinTemp to 300
TCL: Running for 1000000 steps
ETITLE: TS BOND ANGLE DIHED IMPRP ELECT VDW BOUNDARY MISC KINETIC TOTAL TEMP POTENTIAL TOTAL3 TEMPAVG PRESSURE GPRESSURE VOLUME PRESSAVG GPRESSAVG
ENERGY: 325000 1.1803 6.7378 2.1063 0.0000 -17940.3350 2490.9104 0.0000 0.0000 2585.5119 -12853.8882 276.0638 -15439.4002 -12849.6687 276.0638 -175.7858 -93.3298 47157.4230 -175.7858 -93.3298
ENERGY: 525000 0.5390 6.9234 0.8564 0.0000 -17069.0295 2231.9051 0.0000 0.0000 2854.7789 -11974.0267 304.8144 -14828.8056 -11971.6567 298.6490 -252.7118 -184.1209 48067.3910 3.5117 3.1523
ENERGY: 725000 1.0001 13.7241 1.6843 0.0000 -17054.8172 2227.7605 0.0000 0.0000 2894.7943 -11915.8538 309.0869 -14810.6481 -11910.1122 300.2610 -315.3285 -284.1587 48453.4944 2.1353 1.9830
ENERGY: 925000 2.4365 10.0007 1.2335 0.0000 -16929.0750 2269.0926 0.0000 0.0000 2815.5001 -11830.8116 300.6204 -14646.3117 -11825.2192 300.6532 7.8382 29.1371 48811.6959 2.5737 2.7850
ENERGY: 1125000 1.8829 8.4098 1.5743 0.0000 -17160.8263 2382.5562 0.0000 0.0000 2748.1501 -12018.2530 293.4292 -14766.4031 -12012.4628 301.4352 409.7622 535.1823 48379.4712 7.2057 7.4619
ENERGY: 1325000 1.0628 6.8036 0.5847 0.0000 -16882.3341 2174.5771 0.0000 0.0000 2755.4744 -11943.8317 294.2113 -14699.3060 -11940.4133 301.3241 -711.7289 -605.9748 49168.7369 4.0122 5.0650
TCL: Exiting due to exit command.
