Info: SIMULATION PARAMETERS:
Info: TIMESTEP               2
Info: NUMBER OF STEPS        0
Info: STEPS PER CYCLE        10
Info: PERIODIC CELL BASIS 1  31.7819 0 0
Info: PERIODIC CELL BASIS 2  0 30.3385 0
Info: PERIODIC CELL BASIS 3  0 0 32.0556
Info: PERIODIC CELL CENTER   0 0 0
Info: WRAPPING WATERS AROUND PERIODIC BOUNDARIES ON OUTPUT.
Info: WRAPPING ALL CLUSTERS AROUND PERIODIC BOUNDARIES ON OUTPUT.
Info: FIRST LDB TIMESTEP     50
Info: LAST LDB TIMESTEP     -1
Info: HOM BACKGROUND SCALING 1
Info: PME BACKGROUND SCALING 1
Info: MIN ATOMS PER PATCH    40
Info: EMPTY PATCH LOAD       40 ATOMS
Info: VELOCITY FILE          mobley_1967551_equil.vel
Info: CENTER OF MASS MOVING INITIALLY? NO
Info: DIELECTRIC             1
Info: EXCLUDE                SCALED ONE-FOUR
Info: 1-4 ELECTROSTATICS SCALED BY 0.833333
Info: MODIFIED 1-4 VDW PARAMETERS WILL BE USED
Info: DCD FILENAME           mobley_1967551_prod.dcd
Info: DCD FREQUENCY          100000
Info: DCD FIRST STEP         100000
Info: DCD FILE WILL CONTAIN UNIT CELL DATA
Info: XST FILENAME           mobley_1967551_prod.xst
Info: XST FREQUENCY          100000
Info: NO VELOCITY DCD OUTPUT
Info: NO FORCE DCD OUTPUT
Info: OUTPUT FILENAME        mobley_1967551_prod
Info: BINARY OUTPUT FILES WILL BE USED
Info: RESTART FILENAME       mobley_1967551_prod.restart
Info: RESTART FREQUENCY      100000
Info: BINARY RESTART FILES WILL BE USED
Info: CUTOFF                 9
Info: PAIRLIST DISTANCE      11
Info: PAIRLIST SHRINK RATE   0.01
Info: PAIRLIST GROW RATE     0.01
Info: PAIRLIST TRIGGER       0.3
Info: PAIRLISTS PER CYCLE    2
Info: PAIRLISTS ENABLED
Info: MARGIN                 2
Info: HYDROGEN GROUP CUTOFF  2.5
Info: PATCH DIMENSION        15.5
Info: ENERGY OUTPUT STEPS    100000
Info: ENERGY EVALUATION STEPS    100000
Info: OUTPUT ENERGY PRECISION 4
Info: CROSSTERM ENERGY INCLUDED IN DIHEDRAL
Info: TIMING OUTPUT STEPS    1000000
Info: PRESSURE OUTPUT STEPS  100000
Info: ALCHEMICAL FEP ON
Info: FEP CURRENT LAMBDA VALUE     0
Info: FEP COMPARISON LAMBDA VALUE  0.05
Info: FEP INTRA-ALCHEMICAL NON-BONDED INTERACTIONS WILL BE RETAINED
Info: FEP INTRA-ALCHEMICAL BONDED INTERACTIONS WILL BE RETAINED
Info: FEP VDW SHIFTING COEFFICIENT 5
Info: FEP ELEC. ACTIVE FOR ANNIHILATED PARTICLES BETWEEN LAMBDA = 0 AND LAMBDA = 0.5
Info: FEP ELEC. ACTIVE FOR EXNIHILATED PARTICLES BETWEEN LAMBDA = 0.5 AND LAMBDA = 1
Info: FEP VDW ACTIVE FOR ANNIHILATED PARTICLES BETWEEN LAMBDA = 0 AND LAMBDA = 1
Info: FEP VDW ACTIVE FOR EXNIHILATED PARTICLES BETWEEN LAMBDA = 0 AND LAMBDA = 1
Info: FEP BOND ACTIVE FOR ANNIHILATED PARTICLES BETWEEN LAMBDA = 1 AND LAMBDA = 1
Info: FEP BOND ACTIVE FOR EXNIHILATED PARTICLES BETWEEN LAMBDA = 0 AND LAMBDA = 0
Info: LANGEVIN DYNAMICS ACTIVE
Info: LANGEVIN TEMPERATURE   300
Info: LANGEVIN USING BBK INTEGRATOR
Info: LANGEVIN DAMPING COEFFICIENT IS 1 INVERSE PS
Info: LANGEVIN DYNAMICS APPLIED TO HYDROGENS
Info: LANGEVIN PISTON PRESSURE CONTROL ACTIVE
Info:        TARGET PRESSURE IS 1.01325 BAR
Info:     OSCILLATION PERIOD IS 50 FS
Info:             DECAY TIME IS 25 FS
Info:     PISTON TEMPERATURE IS 300 K
Info:       PRESSURE CONTROL IS GROUP-BASED
Info:    INITIAL STRAIN RATE IS 0.00146765 0.00146765 0.00146765
Info:       CELL FLUCTUATION IS ISOTROPIC
Info: PARTICLE MESH EWALD (PME) ACTIVE
Info: PME TOLERANCE               1e-06
Info: PME EWALD COEFFICIENT       0.348832
Info: PME INTERPOLATION ORDER     4
Info: PME GRID DIMENSIONS         32 32 36
Info: PME MAXIMUM GRID SPACING    1
Info: PME CALCULATION WILL BE PERFORMED ON GPU
Info: FULL ELECTROSTATIC EVALUATION FREQUENCY      2
Info: USING VERLET I (r-RESPA) MTS SCHEME.
Info: C1 SPLITTING OF LONG RANGE ELECTROSTATICS
Info: PLACING ATOMS IN PATCHES BY HYDROGEN GROUPS
Info: RIGID BONDS TO HYDROGEN : ALL
Info:         ERROR TOLERANCE : 1e-08
Info:          MAX ITERATIONS : 100
Info: RIGID WATER USING SETTLE ALGORITHM
Info: RANDOM NUMBER SEED     1742320242
Info: USE HYDROGEN BONDS?    NO
Info: Using AMBER format force field!
Info: AMBER PARM FILE        mobley_1967551.prmtop
Info: COORDINATE PDB         mobley_1967551.pdb
Info: Exclusions will be read from PARM file!
Info: SCNB (VDW SCALING)     2
Info: USING ARITHMETIC MEAN TO COMBINE L-J SIGMA PARAMETERS
Info: BINARY COORDINATES     mobley_1967551_equil.coor
Info: SUMMARY OF PARAMETERS:
Info: 6 BONDS
Info: 5 ANGLES
Info:   5 HARMONIC
Info:   0 COSINE-BASED
Info: 4 DIHEDRAL
Info: 0 IMPROPER
Info: 0 CROSSTERM
Info: 0 VDW
Info: 28 VDW_PAIRS
Info: 0 NBTHOLE_PAIRS
Info: To read alchdata from file: mobley_1967551.pdb
Info: To read alchflag data from column: 5
Info: STRUCTURE SUMMARY:
Info: 2992 ATOMS
Info: 2991 BONDS
Info: 9 ANGLES
Info: 10 DIHEDRALS
Info: 0 IMPROPERS
Info: 0 CROSSTERMS
Info: 3006 EXCLUSIONS
Info: 2989 RIGID BONDS
Info: ALCH: 0 ATOMS TO DISAPPEAR IN FINAL STATE
Info: ALCH: 7 ATOMS TO APPEAR IN FINAL STATE
Info: 5987 DEGREES OF FREEDOM
Info: 998 HYDROGEN GROUPS
Info: 4 ATOMS IN LARGEST HYDROGEN GROUP
Info: 998 MIGRATION GROUPS
Info: 4 ATOMS IN LARGEST MIGRATION GROUP
Info: TOTAL MASS = 17970 amu
Info: TOTAL CHARGE = 1.76951e-08 e
Info: MASS DENSITY = 0.965448 g/cm^3
Info: ATOM DENSITY = 0.0968019 atoms/A^3
Info: ADDED 0 IMPLICIT EXCLUSIONS
Info: NONBONDED TABLE R-SQUARED SPACING: 0.0625
Info: NONBONDED TABLE SIZE: 705 POINTS
Info: REMOVING COM VELOCITY 0.0999067 0.137148 0.234508
Info: Use 3D box decompostion in PME FFT.
Info: Updated CUDA force table with 4096 elements.
Info: Updated CUDA LJ table with 7 x 7 elements.
Info: Found 10 unique exclusion lists needing 12 bytes
TCL: Running for 1500000 steps
ETITLE: TS BOND ANGLE DIHED IMPRP ELECT VDW BOUNDARY MISC KINETIC TOTAL TEMP POTENTIAL TOTALAVG TEMPAVG PRESSURE GPRESSURE VOLUME PRESSAVG GPRESSAVG
ENERGY: 0 0.0278 5.8353 19.8235 0.0000 -10847.2374 1418.3657 0.0000 0.0000 1795.8168 -7607.3682 301.8861 -9403.1851 -7607.3682 301.8861 -454.9777 -372.0586 30908.4849 -454.9777 -372.0586
ENERGY: 300000 0.5435 1.7388 21.8337 0.0000 -10895.4364 1463.2163 0.0000 0.0000 1761.4707 -7646.6335 296.1124 -9408.1041 -7588.0403 301.1444 -134.1479 -80.6481 31072.0861 -14.4816 47.1004
ENERGY: 600000 0.2150 3.5262 22.6968 0.0000 -10920.6523 1420.6166 0.0000 0.0000 1829.8541 -7643.7436 307.6080 -9473.5977 -7601.9303 300.4606 -627.2085 -545.7536 30930.4926 -164.3679 -92.9115
ENERGY: 900000 0.2996 2.5175 21.3111 0.0000 -10986.9949 1530.5869 0.0000 0.0000 1817.3802 -7614.8997 305.5110 -9432.2799 -7615.0418 301.1921 608.2654 715.3049 30280.2458 -160.6161 -91.4610
ENERGY: 1200000 0.6623 3.7145 23.5755 0.0000 -10899.5416 1485.7374 0.0000 0.0000 1776.4613 -7609.3906 298.6324 -9385.8519 -7617.1296 300.6418 177.3906 238.4013 30676.5835 -154.8006 -82.7896
ENERGY: 1500000 0.8323 0.8887 22.8914 0.0000 -11046.1492 1567.4612 0.0000 0.0000 1778.2543 -7675.8213 298.9338 -9454.0756 -7616.3701 301.3924 486.5734 521.2464 30692.0756 -50.1412 16.3520
TCL: Running FEP window   2: Lambda1 0.05   Lambda2 0.1    [dLambda 0.05  ]
TCL: Setting parameter firsttimestep to 0
TCL: Setting parameter alchLambda to 0.05
Info: NONBONDED TABLE R-SQUARED SPACING: 0.0625
Info: NONBONDED TABLE SIZE: 705 POINTS
TCL: Setting parameter alchLambda2 to 0.1
Info: NONBONDED TABLE R-SQUARED SPACING: 0.0625
Info: NONBONDED TABLE SIZE: 705 POINTS
TCL: Running for 1500000 steps
ETITLE: TS BOND ANGLE DIHED IMPRP ELECT VDW BOUNDARY MISC KINETIC TOTAL TEMP POTENTIAL TOTALAVG TEMPAVG PRESSURE GPRESSURE VOLUME PRESSAVG GPRESSAVG
ENERGY: 0 0.8323 0.8887 22.8914 0.0000 -11046.1478 1568.6194 0.0000 0.0000 1777.3869 -7675.5290 298.7880 -9452.9159 -7675.5290 298.7880 445.3600 521.8973 30692.0756 445.3600 521.8973
ENERGY: 300000 1.7392 1.9040 24.3957 0.0000 -10775.9885 1460.4460 0.0000 0.0000 1800.9251 -7486.5784 302.7449 -9287.5035 -7595.1393 298.5171 360.2428 392.7739 30538.3187 429.3698 473.5951
ENERGY: 600000 0.6925 3.3559 22.0571 0.0000 -10851.1139 1446.0424 0.0000 0.0000 1770.7456 -7608.2205 297.6715 -9378.9661 -7593.2901 298.9809 -58.4075 7.1294 30560.5120 287.3555 335.9276
ENERGY: 900000 1.5412 2.3833 21.8644 0.0000 -10871.3133 1481.5498 0.0000 0.0000 1843.9586 -7520.0161 309.9790 -9363.9746 -7580.6261 300.4308 282.4128 399.2471 30509.6063 337.4142 394.6788
ENERGY: 1200000 0.0392 2.7018 23.3079 0.0000 -10898.5947 1556.1283 0.0000 0.0000 1813.5696 -7502.8479 304.8705 -9316.4175 -7573.0904 301.0041 641.0506 840.8439 31128.6252 300.7928 372.5063
ENERGY: 1500000 3.3181 1.2616 23.4674 0.0000 -10815.8627 1401.8583 0.0000 0.0000 1776.2266 -7609.7308 298.5929 -9385.9574 -7589.4175 299.7715 -275.8723 -190.8635 30503.8218 220.5480 288.0238
TCL: Running FEP window   3: Lambda1 0.1    Lambda2 0.15000000000000002 [dLambda 0.05000000000000002]
TCL: Setting parameter firsttimestep to 0
TCL: Setting parameter alchLambda to 0.1
Info: NONBONDED TABLE R-SQUARED SPACING: 0.0625
Info: NONBONDED TABLE SIZE: 705 POINTS
TCL: Setting parameter alchLambda2 to 0.15000000000000002
Info: NONBONDED TABLE R-SQUARED SPACING: 0.0625
Info: NONBONDED TABLE SIZE: 705 POINTS
TCL: Running for 1500000 steps
ETITLE: TS BOND ANGLE DIHED IMPRP ELECT VDW BOUNDARY MISC KINETIC TOTAL TEMP POTENTIAL TOTALAVG TEMPAVG PRESSURE GPRESSURE VOLUME PRESSAVG GPRESSAVG
ENERGY: 0 3.3181 1.2616 23.4674 0.0000 -10815.8635 1402.9443 0.0000 0.0000 1775.3940 -7609.4781 298.4529 -9384.8721 -7609.4781 298.4529 -270.9816 -186.8817 30503.8218 -270.9816 -186.8817
ENERGY: 300000 0.1392 2.1723 23.2239 0.0000 -10951.3933 1503.1347 0.0000 0.0000 1822.4467 -7600.2764 306.3628 -9422.7232 -7554.9526 307.7504 52.2040 94.3320 31028.9606 9.1261 78.0183
ENERGY: 600000 0.6652 3.3829 22.2125 0.0000 -10997.6515 1508.6281 0.0000 0.0000 1796.3148 -7666.4479 301.9698 -9462.7627 -7601.1998 304.0199 304.5483 372.5672 30367.7370 23.3157 77.7083
ENERGY: 900000 0.1328 2.4700 22.7993 0.0000 -10897.2771 1472.8387 0.0000 0.0000 1752.6705 -7646.3657 294.6330 -9399.0362 -7601.1775 302.4606 -29.5945 66.8045 30610.7786 -38.3699 20.6653
ENERGY: 1200000 0.3492 3.1356 22.4424 0.0000 -10721.7306 1367.1125 0.0000 0.0000 1814.0608 -7514.6301 304.9530 -9328.6909 -7599.3152 302.3450 -533.5384 -492.9994 30804.2753 -48.5268 10.5401
ENERGY: 1500000 1.4434 3.4983 21.8968 0.0000 -10831.2421 1480.2253 0.0000 0.0000 1805.7496 -7518.4288 303.5559 -9324.1784 -7591.1069 302.1938 425.4666 403.0752 30753.7836 -32.5110 23.3557
TCL: Running FEP window   4: Lambda1 0.15000000000000002 Lambda2 0.2    [dLambda 0.04999999999999999]
TCL: Setting parameter firsttimestep to 0
TCL: Setting parameter alchLambda to 0.15000000000000002
Info: NONBONDED TABLE R-SQUARED SPACING: 0.0625
Info: NONBONDED TABLE SIZE: 705 POINTS
TCL: Setting parameter alchLambda2 to 0.2
Info: NONBONDED TABLE R-SQUARED SPACING: 0.0625
Info: NONBONDED TABLE SIZE: 705 POINTS
TCL: Running for 1500000 steps
ETITLE: TS BOND ANGLE DIHED IMPRP ELECT VDW BOUNDARY MISC KINETIC TOTAL TEMP POTENTIAL TOTALAVG TEMPAVG PRESSURE GPRESSURE VOLUME PRESSAVG GPRESSAVG
ENERGY: 0 1.4434 3.4983 21.8968 0.0000 -10831.2417 1480.8067 0.0000 0.0000 1804.8528 -7518.7437 303.4051 -9323.5965 -7518.7437 303.4051 329.5015 408.2613 30753.7836 329.5015 408.2613
ENERGY: 300000 0.2207 2.1415 21.0917 0.0000 -10776.9690 1346.8072 0.0000 0.0000 1752.2875 -7654.4204 294.5686 -9406.7079 -7600.1004 299.5639 -1046.9357 -978.4201 31047.4249 -158.8172 -104.4848
ENERGY: 600000 0.2263 1.9240 25.0740 0.0000 -11023.6493 1542.5315 0.0000 0.0000 1768.9633 -7684.9302 297.3719 -9453.8935 -7616.2491 299.3981 408.9045 422.5389 30687.7723 11.0592 66.1166
ENERGY: 900000 1.4020 2.2091 21.9434 0.0000 -10744.7252 1379.4540 0.0000 0.0000 1819.9966 -7519.7201 305.9509 -9339.7167 -7595.7208 300.3371 -657.2024 -624.5074 31202.6447 -60.3111 -0.6135
ENERGY: 1200000 2.1269 2.5873 24.6997 0.0000 -10939.4135 1508.3283 0.0000 0.0000 1799.9742 -7601.6973 302.5850 -9401.6715 -7603.0305 300.0464 145.5353 226.5724 30976.6615 -87.5630 -20.8215
ENERGY: 1500000 1.0320 3.3138 23.7893 0.0000 -10798.8243 1378.2144 0.0000 0.0000 1789.1901 -7603.2847 300.7721 -9392.4748 -7603.5476 300.2544 -658.4050 -637.9003 30794.1168 -114.2433 -51.9146
TCL: Running FEP window   5: Lambda1 0.2    Lambda2 0.25   [dLambda 0.04999999999999999]
TCL: Setting parameter firsttimestep to 0
TCL: Setting parameter alchLambda to 0.2
Info: NONBONDED TABLE R-SQUARED SPACING: 0.0625
Info: NONBONDED TABLE SIZE: 705 POINTS
TCL: Setting parameter alchLambda2 to 0.25
Info: NONBONDED TABLE R-SQUARED SPACING: 0.0625
Info: NONBONDED TABLE SIZE: 705 POINTS
TCL: Running for 1500000 steps
ETITLE: TS BOND ANGLE DIHED IMPRP ELECT VDW BOUNDARY MISC KINETIC TOTAL TEMP POTENTIAL TOTALAVG TEMPAVG PRESSURE GPRESSURE VOLUME PRESSAVG GPRESSAVG
ENERGY: 0 1.0320 3.3138 23.7893 0.0000 -10798.8228 1378.0625 0.0000 0.0000 1788.2714 -7604.3538 300.6177 -9392.6252 -7604.3538 300.6177 -720.5231 -635.5531 30794.1168 -720.5231 -635.5531
ENERGY: 300000 0.1342 0.5364 23.4370 0.0000 -10836.6718 1416.0457 0.0000 0.0000 1755.3804 -7641.1381 295.0886 -9396.5184 -7633.1183 300.2888 -345.1071 -392.1261 30844.5774 -15.1108 20.9643
ENERGY: 600000 0.1383 1.0849 23.6297 0.0000 -10799.1703 1377.7976 0.0000 0.0000 1804.1393 -7592.3806 303.2852 -9396.5199 -7630.0293 300.6722 -594.6320 -532.9339 30517.2390 -193.3296 -150.3806
ENERGY: 900000 0.5210 1.9878 21.5418 0.0000 -10821.3055 1456.2209 0.0000 0.0000 1820.0122 -7521.0219 305.9535 -9341.0341 -7610.4560 301.5512 109.1964 200.6291 30872.2173 -154.6138 -117.2096
ENERGY: 1200000 0.0913 2.1775 23.1110 0.0000 -10952.2585 1509.5628 0.0000 0.0000 1799.7396 -7617.5763 302.5456 -9417.3159 -7619.3090 300.7541 388.5498 464.9876 30414.4756 -185.3772 -140.3183
ENERGY: 1500000 0.3261 3.3860 23.4480 0.0000 -11023.5675 1572.4134 0.0000 0.0000 1836.3147 -7587.6792 308.6940 -9423.9939 -7617.7411 300.4619 667.1814 716.1147 30844.4670 -111.0832 -62.5796
TCL: Running FEP window   6: Lambda1 0.25   Lambda2 0.3    [dLambda 0.04999999999999999]
TCL: Setting parameter firsttimestep to 0
TCL: Setting parameter alchLambda to 0.25
Info: NONBONDED TABLE R-SQUARED SPACING: 0.0625
Info: NONBONDED TABLE SIZE: 705 POINTS
TCL: Setting parameter alchLambda2 to 0.3
Info: NONBONDED TABLE R-SQUARED SPACING: 0.0625
Info: NONBONDED TABLE SIZE: 705 POINTS
TCL: Running for 1500000 steps
ETITLE: TS BOND ANGLE DIHED IMPRP ELECT VDW BOUNDARY MISC KINETIC TOTAL TEMP POTENTIAL TOTALAVG TEMPAVG PRESSURE GPRESSURE VOLUME PRESSAVG GPRESSAVG
ENERGY: 0 0.3261 3.3860 23.4480 0.0000 -11023.5673 1573.5424 0.0000 0.0000 1835.3880 -7587.4768 308.5383 -9422.8648 -7587.4768 308.5383 632.6986 722.3997 30844.4670 632.6986 722.3997
ENERGY: 300000 1.5266 1.3198 22.6448 0.0000 -10836.7956 1378.0358 0.0000 0.0000 1781.5417 -7651.7269 299.4864 -9433.2686 -7611.7711 301.7336 -653.0323 -552.5022 30479.0929 -81.4341 26.9764
ENERGY: 600000 0.3094 3.4540 22.0593 0.0000 -10982.5553 1493.6011 0.0000 0.0000 1771.0183 -7692.1132 297.7174 -9463.1315 -7612.5835 302.4279 264.9612 222.0754 30220.6808 -195.8439 -110.1468
ENERGY: 900000 0.0843 4.5456 21.8234 0.0000 -10831.7730 1427.6284 0.0000 0.0000 1757.4027 -7620.2885 295.4285 -9377.6912 -7611.5112 301.6932 -147.1583 -134.7097 30660.4284 -168.1520 -96.9878
ENERGY: 1200000 0.2242 2.4891 20.5718 0.0000 -10829.2409 1468.6395 0.0000 0.0000 1808.3064 -7529.0099 303.9857 -9337.3164 -7611.8780 301.6420 141.4740 233.7314 30950.1120 -113.6059 -43.0006
ENERGY: 1500000 0.4435 3.2710 23.4128 0.0000 -10841.9874 1475.9162 0.0000 0.0000 1750.0641 -7588.8798 294.1949 -9338.9439 -7615.7453 300.6874 -6.1100 24.8274 31043.7855 -106.3483 -34.6231
TCL: Running FEP window   7: Lambda1 0.3    Lambda2 0.35   [dLambda 0.04999999999999999]
TCL: Setting parameter firsttimestep to 0
TCL: Setting parameter alchLambda to 0.3
Info: NONBONDED TABLE R-SQUARED SPACING: 0.0625
Info: NONBONDED TABLE SIZE: 705 POINTS
TCL: Setting parameter alchLambda2 to 0.35
Info: NONBONDED TABLE R-SQUARED SPACING: 0.0625
Info: NONBONDED TABLE SIZE: 705 POINTS
TCL: Running for 1500000 steps
ETITLE: TS BOND ANGLE DIHED IMPRP ELECT VDW BOUNDARY MISC KINETIC TOTAL TEMP POTENTIAL TOTALAVG TEMPAVG PRESSURE GPRESSURE VOLUME PRESSAVG GPRESSAVG
ENERGY: 0 0.4435 3.2710 23.4128 0.0000 -10841.9861 1476.7658 0.0000 0.0000 1749.1532 -7588.9399 294.0417 -9338.0931 -7588.9399 294.0417 -49.2371 30.1206 31043.7855 -49.2371 30.1206
ENERGY: 300000 1.8196 5.0197 22.2335 0.0000 -10841.1977 1412.6530 0.0000 0.0000 1723.5387 -7675.9333 289.7358 -9399.4720 -7630.4282 294.1141 -203.7393 -141.9855 30553.4532 -112.1435 -43.8370
ENERGY: 600000 0.9079 5.3919 21.1671 0.0000 -11034.9057 1585.5962 0.0000 0.0000 1841.3326 -7580.5100 309.5376 -9421.8426 -7630.9812 297.7809 757.3354 789.8938 30790.9736 121.0288 178.8099
ENERGY: 900000 0.8597 2.2687 22.4713 0.0000 -11005.8538 1552.6923 0.0000 0.0000 1788.4150 -7639.1469 300.6418 -9427.5618 -7630.1119 299.6772 845.9233 940.1470 30227.6323 121.9351 170.8673
ENERGY: 1200000 0.8527 1.7635 21.8061 0.0000 -10759.8336 1375.3757 0.0000 0.0000 1814.4421 -7545.5937 305.0171 -9360.0358 -7618.8201 300.4256 -507.7366 -488.6608 30759.2889 29.6134 77.6488
ENERGY: 1500000 0.0843 3.3555 21.8023 0.0000 -10878.8212 1547.7875 0.0000 0.0000 1797.5132 -7508.2785 302.1713 -9305.7917 -7607.6506 301.1652 701.5154 814.0722 31055.0689 14.4040 68.7688
TCL: Running FEP window   8: Lambda1 0.35   Lambda2 0.39999999999999997 [dLambda 0.04999999999999999]
TCL: Setting parameter firsttimestep to 0
TCL: Setting parameter alchLambda to 0.35
Info: NONBONDED TABLE R-SQUARED SPACING: 0.0625
Info: NONBONDED TABLE SIZE: 705 POINTS
TCL: Setting parameter alchLambda2 to 0.39999999999999997
Info: NONBONDED TABLE R-SQUARED SPACING: 0.0625
Info: NONBONDED TABLE SIZE: 705 POINTS
TCL: Running for 1500000 steps
ETITLE: TS BOND ANGLE DIHED IMPRP ELECT VDW BOUNDARY MISC KINETIC TOTAL TEMP POTENTIAL TOTALAVG TEMPAVG PRESSURE GPRESSURE VOLUME PRESSAVG GPRESSAVG
ENERGY: 0 0.0843 3.3555 21.8023 0.0000 -10878.8231 1547.7542 0.0000 0.0000 1796.6151 -7509.2118 302.0203 -9305.8269 -7509.2118 302.0203 729.6194 816.0583 31055.0689 729.6194 816.0583
ENERGY: 300000 1.9447 2.5297 21.3588 0.0000 -10847.2138 1461.0197 0.0000 0.0000 1781.8290 -7578.5319 299.5347 -9360.3609 -7563.4190 301.4475 -224.6590 -124.6480 31006.3616 -9.7500 102.4472
ENERGY: 600000 1.0361 1.6566 22.2746 0.0000 -10890.8409 1444.8657 0.0000 0.0000 1790.2364 -7630.7714 300.9480 -9421.0078 -7590.3181 300.4552 -509.8273 -446.5133 31243.8319 -36.4602 43.0532
ENERGY: 900000 0.3131 0.9557 23.6616 0.0000 -10974.5510 1514.3035 0.0000 0.0000 1770.0826 -7665.2344 297.5601 -9435.3170 -7595.2050 300.7994 171.8142 214.0325 30728.8215 -60.0438 12.8500
ENERGY: 1200000 1.7558 4.9838 21.2397 0.0000 -10732.1481 1392.2125 0.0000 0.0000 1804.8572 -7507.0990 303.4059 -9311.9563 -7587.6398 300.7925 -376.6890 -316.1691 30948.9127 -159.7973 -89.6466
ENERGY: 1500000 0.0473 2.5122 21.1544 0.0000 -10797.7736 1458.8312 0.0000 0.0000 1840.2500 -7474.9785 309.3556 -9315.2285 -7572.7639 301.3736 -68.8129 -45.6913 31441.0172 -99.9242 -39.6859
TCL: Running FEP window   9: Lambda1 0.39999999999999997 Lambda2 0.44999999999999996 [dLambda 0.04999999999999999]
TCL: Setting parameter firsttimestep to 0
TCL: Setting parameter alchLambda to 0.39999999999999997
Info: NONBONDED TABLE R-SQUARED SPACING: 0.0625
Info: NONBONDED TABLE SIZE: 705 POINTS
TCL: Setting parameter alchLambda2 to 0.44999999999999996
Info: NONBONDED TABLE R-SQUARED SPACING: 0.0625
Info: NONBONDED TABLE SIZE: 705 POINTS
TCL: Running for 1500000 steps
ETITLE: TS BOND ANGLE DIHED IMPRP ELECT VDW BOUNDARY MISC KINETIC TOTAL TEMP POTENTIAL TOTALAVG TEMPAVG PRESSURE GPRESSURE VOLUME PRESSAVG GPRESSAVG
ENERGY: 0 0.0473 2.5122 21.1544 0.0000 -10797.7753 1458.8227 0.0000 0.0000 1839.3598 -7475.8790 309.2059 -9315.2388 -7475.8790 309.2059 -123.5648 -41.9551 31441.0172 -123.5648 -41.9551
ENERGY: 300000 0.0310 1.1445 22.7809 0.0000 -10880.1028 1526.4053 0.0000 0.0000 1733.2168 -7596.5243 291.3627 -9329.7411 -7570.7584 297.3779 883.6949 956.3331 30236.9223 -11.3843 55.7381
ENERGY: 600000 0.8228 1.8227 22.0381 0.0000 -10901.6455 1508.7480 0.0000 0.0000 1796.4676 -7571.7462 301.9955 -9368.2139 -7578.9775 299.3767 328.9365 390.3591 30930.0803 -111.3645 -48.2580
ENERGY: 900000 0.5571 2.9469 21.0400 0.0000 -11066.9212 1538.0022 0.0000 0.0000 1816.3704 -7688.0046 305.3413 -9504.3750 -7596.6104 299.1237 556.0304 621.5616 30182.8243 -58.5067 7.4213
ENERGY: 1200000 0.3302 4.7006 22.6916 0.0000 -10828.1612 1412.3727 0.0000 0.0000 1775.5187 -7612.5475 298.4739 -9388.0662 -7605.1294 298.9317 -415.0359 -317.4624 30781.6548 -74.9559 -11.3983
ENERGY: 1500000 0.2841 2.7953 20.4766 0.0000 -10903.8314 1490.1950 0.0000 0.0000 1805.2399 -7584.8405 303.4702 -9390.0804 -7611.6292 298.8958 195.1421 206.3449 30803.8644 -74.1223 -17.0598
TCL: Running FEP window  10: Lambda1 0.44999999999999996 Lambda2 0.49999999999999994 [dLambda 0.04999999999999999]
TCL: Setting parameter firsttimestep to 0
TCL: Setting parameter alchLambda to 0.44999999999999996
Info: NONBONDED TABLE R-SQUARED SPACING: 0.0625
Info: NONBONDED TABLE SIZE: 705 POINTS
TCL: Setting parameter alchLambda2 to 0.49999999999999994
Info: NONBONDED TABLE R-SQUARED SPACING: 0.0625
Info: NONBONDED TABLE SIZE: 705 POINTS
TCL: Running for 1500000 steps
ETITLE: TS BOND ANGLE DIHED IMPRP ELECT VDW BOUNDARY MISC KINETIC TOTAL TEMP POTENTIAL TOTALAVG TEMPAVG PRESSURE GPRESSURE VOLUME PRESSAVG GPRESSAVG
ENERGY: 0 0.2841 2.7953 20.4766 0.0000 -10903.8332 1490.7269 0.0000 0.0000 1804.3501 -7585.2003 303.3206 -9389.5504 -7585.2003 303.3206 138.5463 213.7689 30803.8644 138.5463 213.7689
ENERGY: 300000 0.1363 8.4004 19.2101 0.0000 -11002.6871 1541.7104 0.0000 0.0000 1757.1305 -7676.0993 295.3828 -9433.2299 -7589.7431 300.5552 275.7003 312.8779 30947.9242 503.0179 552.6280
ENERGY: 600000 1.4341 3.1668 22.1491 0.0000 -10954.0628 1493.6507 0.0000 0.0000 1796.8206 -7636.8416 302.0549 -9433.6621 -7577.2499 300.9812 -198.8055 -76.6616 31156.8659 195.5473 255.6011
ENERGY: 900000 0.0230 3.4233 22.1616 0.0000 -10945.1932 1511.0215 0.0000 0.0000 1801.8049 -7606.7589 302.8928 -9408.5638 -7581.6767 302.2138 549.1871 576.4968 30468.7174 174.5353 232.8720
ENERGY: 1200000 0.6899 1.1897 22.7684 0.0000 -10890.5099 1439.2552 0.0000 0.0000 1794.0171 -7632.5895 301.5836 -9426.6066 -7585.3676 302.3542 -429.1751 -370.0812 30865.2057 147.6712 197.2193
ENERGY: 1500000 1.0488 2.7643 21.4387 0.0000 -10874.1042 1413.0333 0.0000 0.0000 1806.7375 -7629.0817 303.7219 -9435.8191 -7605.0399 300.1594 -195.9681 -138.7597 30275.9839 101.1044 164.7761
TCL: Running FEP window  11: Lambda1 0.49999999999999994 Lambda2 0.5499999999999999 [dLambda 0.04999999999999999]
TCL: Setting parameter firsttimestep to 0
TCL: Setting parameter alchLambda to 0.49999999999999994
Info: NONBONDED TABLE R-SQUARED SPACING: 0.0625
Info: NONBONDED TABLE SIZE: 705 POINTS
TCL: Setting parameter alchLambda2 to 0.5499999999999999
Info: NONBONDED TABLE R-SQUARED SPACING: 0.0625
Info: NONBONDED TABLE SIZE: 705 POINTS
TCL: Running for 1500000 steps
ETITLE: TS BOND ANGLE DIHED IMPRP ELECT VDW BOUNDARY MISC KINETIC TOTAL TEMP POTENTIAL TOTALAVG TEMPAVG PRESSURE GPRESSURE VOLUME PRESSAVG GPRESSAVG
ENERGY: 0 1.0488 2.7643 21.4387 0.0000 -10874.1042 1413.0369 0.0000 0.0000 1805.8159 -7629.9997 303.5670 -9435.8156 -7629.9997 303.5670 -207.0224 -135.2132 30275.9839 -207.0224 -135.2132
ENERGY: 300000 0.4854 0.7032 23.4426 0.0000 -10841.7714 1409.9196 0.0000 0.0000 1779.5297 -7627.6909 299.1482 -9407.2206 -7605.7085 300.5484 -764.6694 -669.1106 31254.3054 98.6724 149.5315
ENERGY: 600000 1.2990 1.8506 22.5542 0.0000 -10809.4702 1389.7697 0.0000 0.0000 1851.8316 -7542.1650 311.3025 -9393.9966 -7603.4310 299.2134 -480.1742 -479.8721 30996.5095 -52.7154 -4.9907
ENERGY: 900000 0.9744 2.3544 20.7517 0.0000 -10801.2452 1464.3732 0.0000 0.0000 1752.6045 -7560.1871 294.6219 -9312.7916 -7583.0635 300.4914 151.5066 199.6696 30566.1562 -11.7011 43.6555
ENERGY: 1200000 0.9126 0.9708 22.5619 0.0000 -10775.9172 1397.8653 0.0000 0.0000 1816.1802 -7537.4265 305.3093 -9353.6066 -7581.4670 301.4623 -576.7613 -494.9711 31184.5490 -169.1473 -110.0557
ENERGY: 1500000 0.6520 4.4148 20.5991 0.0000 -10836.8857 1447.3232 0.0000 0.0000 1785.0890 -7578.8075 300.0827 -9363.8964 -7592.3782 301.1664 26.0563 60.7076 30713.7880 -131.4015 -70.3668
TCL: Running FEP window  12: Lambda1 0.5499999999999999 Lambda2 0.6    [dLambda 0.050000000000000044]
TCL: Setting parameter firsttimestep to 0
TCL: Setting parameter alchLambda to 0.5499999999999999
Info: NONBONDED TABLE R-SQUARED SPACING: 0.0625
Info: NONBONDED TABLE SIZE: 705 POINTS
TCL: Setting parameter alchLambda2 to 0.6
Info: NONBONDED TABLE R-SQUARED SPACING: 0.0625
Info: NONBONDED TABLE SIZE: 705 POINTS
TCL: Running for 1500000 steps
ETITLE: TS BOND ANGLE DIHED IMPRP ELECT VDW BOUNDARY MISC KINETIC TOTAL TEMP POTENTIAL TOTALAVG TEMPAVG PRESSURE GPRESSURE VOLUME PRESSAVG GPRESSAVG
ENERGY: 0 0.6520 4.4148 20.5991 0.0000 -10836.8045 1447.0158 0.0000 0.0000 1784.1914 -7579.9312 299.9318 -9364.1227 -7579.9312 299.9318 -30.6230 62.2568 30713.7880 -30.6230 62.2568
ENERGY: 300000 0.2822 1.4394 23.3209 0.0000 -10891.1523 1463.7592 0.0000 0.0000 1763.2196 -7639.1309 296.4064 -9402.3505 -7639.6287 297.7698 -24.2667 35.0214 30693.3887 54.0208 136.3202
ENERGY: 600000 0.4320 2.0392 22.1458 0.0000 -10749.4570 1306.1472 0.0000 0.0000 1771.0981 -7647.5946 297.7308 -9418.6927 -7619.2541 298.3941 -1313.9794 -1196.6183 30639.5806 -292.2628 -210.0236
ENERGY: 900000 0.2112 1.7181 22.8211 0.0000 -10821.0239 1439.1855 0.0000 0.0000 1768.0662 -7589.0219 297.2211 -9357.0881 -7607.3401 297.4057 -169.6014 -135.2497 30976.9876 -97.4385 -19.5954
ENERGY: 1200000 1.4108 2.3773 21.9348 0.0000 -10864.1318 1492.3642 0.0000 0.0000 1752.3110 -7593.7338 294.5726 -9346.0448 -7600.5245 298.2176 43.4510 162.3919 31110.9955 -139.4404 -68.9121
ENERGY: 1500000 0.4446 3.6077 21.1582 0.0000 -11021.1068 1523.2927 0.0000 0.0000 1770.4845 -7702.1191 297.6276 -9472.6036 -7597.2126 298.4481 -50.0132 69.2274 31108.5569 -127.8077 -57.0054
TCL: Running FEP window  13: Lambda1 0.6    Lambda2 0.65   [dLambda 0.050000000000000044]
TCL: Setting parameter firsttimestep to 0
TCL: Setting parameter alchLambda to 0.6
Info: NONBONDED TABLE R-SQUARED SPACING: 0.0625
Info: NONBONDED TABLE SIZE: 705 POINTS
TCL: Setting parameter alchLambda2 to 0.65
Info: NONBONDED TABLE R-SQUARED SPACING: 0.0625
Info: NONBONDED TABLE SIZE: 705 POINTS
TCL: Running for 1500000 steps
ETITLE: TS BOND ANGLE DIHED IMPRP ELECT VDW BOUNDARY MISC KINETIC TOTAL TEMP POTENTIAL TOTALAVG TEMPAVG PRESSURE GPRESSURE VOLUME PRESSAVG GPRESSAVG
ENERGY: 0 0.4446 3.6077 21.1582 0.0000 -11020.8800 1522.9222 0.0000 0.0000 1769.5864 -7703.1610 297.4767 -9472.7474 -7703.1610 297.4767 -15.0293 69.1148 31108.5569 -15.0293 69.1148
ENERGY: 300000 0.2240 1.3147 23.6105 0.0000 -10928.2492 1497.7190 0.0000 0.0000 1787.5802 -7617.8010 300.5015 -9405.3811 -7619.0570 301.8028 703.7982 709.2607 29973.7036 435.5281 493.5691
ENERGY: 600000 0.0545 0.8162 22.1487 0.0000 -10902.7112 1490.2030 0.0000 0.0000 1770.5462 -7618.9426 297.6380 -9389.4888 -7589.4343 301.5515 172.5211 187.4084 30800.3935 251.8006 292.8819
ENERGY: 900000 0.9650 5.4262 20.5998 0.0000 -10868.7855 1452.9457 0.0000 0.0000 1803.8987 -7584.9502 303.2447 -9388.8490 -7603.7338 300.6104 8.8621 38.6172 30558.7490 133.4674 182.8645
ENERGY: 1200000 0.4846 3.0016 21.5993 0.0000 -10859.9698 1384.3702 0.0000 0.0000 1790.3401 -7660.1740 300.9655 -9450.5141 -7599.9493 301.3867 -662.6729 -582.6991 30433.3739 68.0986 117.8347
ENERGY: 1500000 0.3034 6.8545 20.3862 0.0000 -10786.7663 1398.2738 0.0000 0.0000 1825.8085 -7535.1398 306.9279 -9360.9483 -7600.1248 301.2454 -594.4988 -501.5889 31413.1968 -2.4610 50.4913
TCL: Running FEP window  14: Lambda1 0.65   Lambda2 0.7000000000000001 [dLambda 0.050000000000000044]
TCL: Setting parameter firsttimestep to 0
TCL: Setting parameter alchLambda to 0.65
Info: NONBONDED TABLE R-SQUARED SPACING: 0.0625
Info: NONBONDED TABLE SIZE: 705 POINTS
TCL: Setting parameter alchLambda2 to 0.7000000000000001
Info: NONBONDED TABLE R-SQUARED SPACING: 0.0625
Info: NONBONDED TABLE SIZE: 705 POINTS
TCL: Running for 1500000 steps
ETITLE: TS BOND ANGLE DIHED IMPRP ELECT VDW BOUNDARY MISC KINETIC TOTAL TEMP POTENTIAL TOTALAVG TEMPAVG PRESSURE GPRESSURE VOLUME PRESSAVG GPRESSAVG
ENERGY: 0 0.3034 6.8545 20.3862 0.0000 -10787.2299 1398.0359 0.0000 0.0000 1824.9285 -7536.7213 306.7800 -9361.6498 -7536.7213 306.7800 -573.9058 -499.4671 31413.1968 -573.9058 -499.4671
ENERGY: 300000 0.1800 0.8326 23.3737 0.0000 -10945.7274 1521.7430 0.0000 0.0000 1768.2461 -7631.3520 297.2514 -9399.5981 -7596.4045 305.2990 560.7879 656.6044 30581.5844 -123.4767 -50.4520
ENERGY: 600000 0.1511 3.6413 22.2308 0.0000 -10970.8507 1481.5959 0.0000 0.0000 1795.0272 -7668.2045 301.7534 -9463.2316 -7577.1130 303.5095 -75.0992 29.3430 30682.1193 -167.3466 -95.4195
ENERGY: 900000 0.2345 1.6754 23.0114 0.0000 -10928.9648 1499.5952 0.0000 0.0000 1762.8031 -7641.6453 296.3363 -9404.4483 -7592.4799 301.7224 393.3653 446.4605 30356.0489 28.1397 83.5550
ENERGY: 1200000 0.7701 1.5237 21.5408 0.0000 -11066.8565 1571.8282 0.0000 0.0000 1768.3900 -7702.8036 297.2755 -9471.1936 -7601.8560 301.4716 488.3097 562.1292 30642.6690 -11.5869 42.6182
ENERGY: 1500000 0.9926 6.3143 23.0584 0.0000 -10843.7688 1446.8826 0.0000 0.0000 1775.0482 -7591.4727 298.3948 -9366.5209 -7596.3189 301.6538 -165.1638 -111.1064 30654.6128 -23.3944 32.8870
TCL: Running FEP window  15: Lambda1 0.7000000000000001 Lambda2 0.7500000000000001 [dLambda 0.050000000000000044]
TCL: Setting parameter firsttimestep to 0
TCL: Setting parameter alchLambda to 0.7000000000000001
Info: NONBONDED TABLE R-SQUARED SPACING: 0.0625
Info: NONBONDED TABLE SIZE: 705 POINTS
TCL: Setting parameter alchLambda2 to 0.7500000000000001
Info: NONBONDED TABLE R-SQUARED SPACING: 0.0625
Info: NONBONDED TABLE SIZE: 705 POINTS
TCL: Running for 1500000 steps
ETITLE: TS BOND ANGLE DIHED IMPRP ELECT VDW BOUNDARY MISC KINETIC TOTAL TEMP POTENTIAL TOTALAVG TEMPAVG PRESSURE GPRESSURE VOLUME PRESSAVG GPRESSAVG
ENERGY: 0 0.9926 6.3143 23.0584 0.0000 -10844.7630 1447.1065 0.0000 0.0000 1774.1582 -7593.1331 298.2452 -9367.2913 -7593.1331 298.2452 -202.5815 -108.3923 30654.6128 -202.5815 -108.3923
ENERGY: 300000 1.0194 6.3803 21.9254 0.0000 -10824.1679 1437.2967 0.0000 0.0000 1754.0704 -7603.4757 294.8683 -9357.5460 -7575.6762 301.2765 -241.4268 -166.6725 31011.1664 -279.1667 -209.2748
ENERGY: 600000 0.0204 1.5871 22.9397 0.0000 -10838.0098 1431.7715 0.0000 0.0000 1777.7965 -7603.8946 298.8568 -9381.6911 -7570.8943 300.5008 -17.3062 2.5591 30417.4193 -237.2771 -175.2730
ENERGY: 900000 1.0782 3.0203 22.1097 0.0000 -10945.8763 1517.4405 0.0000 0.0000 1780.7366 -7621.4910 299.3511 -9402.2276 -7589.0579 300.7732 490.2586 616.0081 30752.5189 -110.4693 -48.9684
ENERGY: 1200000 0.1875 0.7109 23.2728 0.0000 -10873.3782 1427.5290 0.0000 0.0000 1792.2887 -7629.3892 301.2930 -9421.6779 -7596.6340 300.9102 -475.5417 -438.1171 31096.2320 -113.5386 -50.7423
ENERGY: 1500000 0.5974 5.3862 21.6495 0.0000 -10875.6303 1490.5759 0.0000 0.0000 1774.8338 -7582.5874 298.3588 -9357.4212 -7596.3506 300.4168 -49.1051 43.2460 31463.7547 -112.1754 -48.1194
TCL: Running FEP window  16: Lambda1 0.7500000000000001 Lambda2 0.8000000000000002 [dLambda 0.050000000000000044]
TCL: Setting parameter firsttimestep to 0
TCL: Setting parameter alchLambda to 0.7500000000000001
Info: NONBONDED TABLE R-SQUARED SPACING: 0.0625
Info: NONBONDED TABLE SIZE: 705 POINTS
TCL: Setting parameter alchLambda2 to 0.8000000000000002
Info: NONBONDED TABLE R-SQUARED SPACING: 0.0625
Info: NONBONDED TABLE SIZE: 705 POINTS
TCL: Running for 1500000 steps
ETITLE: TS BOND ANGLE DIHED IMPRP ELECT VDW BOUNDARY MISC KINETIC TOTAL TEMP POTENTIAL TOTALAVG TEMPAVG PRESSURE GPRESSURE VOLUME PRESSAVG GPRESSAVG
ENERGY: 0 0.5974 5.3862 21.6495 0.0000 -10876.6890 1491.8491 0.0000 0.0000 1773.9296 -7583.2772 298.2068 -9357.2067 -7583.2772 298.2068 -21.1078 58.2690 31463.7547 -21.1078 58.2690
ENERGY: 300000 1.1542 0.9239 23.3940 0.0000 -10841.4595 1413.5058 0.0000 0.0000 1750.6611 -7651.8205 294.2952 -9402.4816 -7645.2027 298.7801 -572.0043 -517.2341 30878.6126 -35.8921 46.1784
ENERGY: 600000 0.3527 1.8436 22.6822 0.0000 -10797.3808 1373.1668 0.0000 0.0000 1823.8600 -7575.4754 306.6003 -9399.3354 -7634.5072 299.7954 -735.0034 -609.7903 30864.6977 -193.6119 -106.7536
ENERGY: 900000 0.8369 1.9557 21.6295 0.0000 -10842.5682 1511.9352 0.0000 0.0000 1745.4846 -7560.7263 293.4250 -9306.2109 -7611.5177 298.7605 483.1925 578.2677 31057.7283 56.5349 134.5305
ENERGY: 1200000 0.5227 0.7466 23.6515 0.0000 -10860.3301 1431.8000 0.0000 0.0000 1829.6324 -7573.9770 307.5707 -9403.6094 -7619.6693 299.2331 -215.8969 -176.5526 30660.6359 70.7162 135.2885
ENERGY: 1500000 0.0309 6.8593 21.4571 0.0000 -10724.1692 1388.4963 0.0000 0.0000 1790.0595 -7517.2661 300.9183 -9307.3256 -7601.4450 299.8334 -483.4528 -412.9018 31048.2555 27.2312 91.1555
TCL: Running FEP window  17: Lambda1 0.8000000000000002 Lambda2 0.8500000000000002 [dLambda 0.050000000000000044]
TCL: Setting parameter firsttimestep to 0
TCL: Setting parameter alchLambda to 0.8000000000000002
Info: NONBONDED TABLE R-SQUARED SPACING: 0.0625
Info: NONBONDED TABLE SIZE: 705 POINTS
TCL: Setting parameter alchLambda2 to 0.8500000000000002
Info: NONBONDED TABLE R-SQUARED SPACING: 0.0625
Info: NONBONDED TABLE SIZE: 705 POINTS
TCL: Running for 1500000 steps
ETITLE: TS BOND ANGLE DIHED IMPRP ELECT VDW BOUNDARY MISC KINETIC TOTAL TEMP POTENTIAL TOTALAVG TEMPAVG PRESSURE GPRESSURE VOLUME PRESSAVG GPRESSAVG
ENERGY: 0 0.0309 6.8593 21.4571 0.0000 -10725.9935 1390.2645 0.0000 0.0000 1789.1797 -7518.2020 300.7704 -9307.3817 -7518.2020 300.7704 -491.5812 -392.2169 31048.2555 -491.5812 -392.2169
ENERGY: 300000 0.2006 2.3567 22.2562 0.0000 -10827.9777 1355.5327 0.0000 0.0000 1814.6653 -7632.9662 305.0547 -9447.6315 -7607.1528 298.7226 -1089.9679 -1093.2536 31068.0498 -420.0851 -362.7324
ENERGY: 600000 1.3192 2.6454 21.1456 0.0000 -10822.8481 1418.7175 0.0000 0.0000 1758.6529 -7620.3674 295.6387 -9379.0204 -7601.3905 298.6678 -128.6742 -109.4468 30638.5750 -206.7232 -145.1324
ENERGY: 900000 0.1411 2.0571 23.0485 0.0000 -10898.7231 1525.4125 0.0000 0.0000 1769.3811 -7578.6828 297.4422 -9348.0639 -7612.0920 298.3823 719.9637 727.5924 30583.5683 -121.9360 -67.1663
ENERGY: 1200000 0.9637 2.7546 21.0126 0.0000 -10867.8612 1474.3887 0.0000 0.0000 1787.6448 -7581.0969 300.5124 -9368.7417 -7602.5957 298.5311 356.1691 393.4124 30378.7311 -199.8815 -142.8575
ENERGY: 1500000 0.3380 0.8862 22.9857 0.0000 -10812.0662 1340.1697 0.0000 0.0000 1739.4725 -7708.2141 292.4144 -9447.6866 -7612.4294 298.4242 -1221.3231 -1108.1957 30900.5619 -216.1402 -148.7151
TCL: Running FEP window  18: Lambda1 0.8500000000000002 Lambda2 0.9000000000000002 [dLambda 0.050000000000000044]
TCL: Setting parameter firsttimestep to 0
TCL: Setting parameter alchLambda to 0.8500000000000002
Info: NONBONDED TABLE R-SQUARED SPACING: 0.0625
Info: NONBONDED TABLE SIZE: 705 POINTS
TCL: Setting parameter alchLambda2 to 0.9000000000000002
Info: NONBONDED TABLE R-SQUARED SPACING: 0.0625
Info: NONBONDED TABLE SIZE: 705 POINTS
TCL: Running for 1500000 steps
ETITLE: TS BOND ANGLE DIHED IMPRP ELECT VDW BOUNDARY MISC KINETIC TOTAL TEMP POTENTIAL TOTALAVG TEMPAVG PRESSURE GPRESSURE VOLUME PRESSAVG GPRESSAVG
ENERGY: 0 0.3380 0.8862 22.9857 0.0000 -10813.2178 1340.2135 0.0000 0.0000 1738.5615 -7710.2330 292.2612 -9448.7945 -7710.2330 292.2612 -1192.8654 -1106.2063 30900.5619 -1192.8654 -1106.2063
ENERGY: 300000 1.6823 2.7567 23.5789 0.0000 -10716.7806 1322.4343 0.0000 0.0000 1769.4761 -7596.8524 297.4581 -9366.3285 -7618.1877 298.4755 -1108.3789 -1017.0893 31014.4187 -133.3220 -49.9670
ENERGY: 600000 0.9262 3.4012 21.0073 0.0000 -10918.2568 1517.4112 0.0000 0.0000 1778.1004 -7597.4105 298.9079 -9375.5109 -7614.1486 297.2022 608.7835 643.3488 30463.4271 -65.7465 17.0311
ENERGY: 900000 0.0794 1.4005 22.5988 0.0000 -10927.0513 1487.4756 0.0000 0.0000 1755.0383 -7660.4587 295.0310 -9415.4970 -7606.5491 298.9971 152.3186 246.8083 30662.3312 -35.9565 45.9656
ENERGY: 1200000 0.9591 4.2410 21.5409 0.0000 -10840.4541 1446.6317 0.0000 0.0000 1740.6635 -7626.4179 292.6146 -9367.0814 -7613.3646 298.1952 -105.8674 -81.2077 30877.2751 -55.1212 20.9601
ENERGY: 1500000 0.5061 2.7459 20.9292 0.0000 -10991.5339 1514.1756 0.0000 0.0000 1799.5696 -7653.6075 302.5170 -9453.1771 -7613.4496 298.6886 169.9831 221.7198 30916.1874 -74.6120 -3.3794
TCL: Running FEP window  19: Lambda1 0.9000000000000002 Lambda2 0.9500000000000003 [dLambda 0.050000000000000044]
TCL: Setting parameter firsttimestep to 0
TCL: Setting parameter alchLambda to 0.9000000000000002
Info: NONBONDED TABLE R-SQUARED SPACING: 0.0625
Info: NONBONDED TABLE SIZE: 705 POINTS
TCL: Setting parameter alchLambda2 to 0.9500000000000003
Info: NONBONDED TABLE R-SQUARED SPACING: 0.0625
Info: NONBONDED TABLE SIZE: 705 POINTS
TCL: Running for 1500000 steps
ETITLE: TS BOND ANGLE DIHED IMPRP ELECT VDW BOUNDARY MISC KINETIC TOTAL TEMP POTENTIAL TOTALAVG TEMPAVG PRESSURE GPRESSURE VOLUME PRESSAVG GPRESSAVG
ENERGY: 0 0.5061 2.7459 20.9292 0.0000 -10992.0338 1514.4593 0.0000 0.0000 1798.6570 -7654.7363 302.3636 -9453.3933 -7654.7363 302.3636 162.0041 231.2839 30916.1874 162.0041 231.2839
ENERGY: 300000 0.5424 5.7034 21.8516 0.0000 -10902.2252 1470.0735 0.0000 0.0000 1769.6869 -7634.3674 297.4936 -9404.0543 -7643.1731 301.0705 -127.7669 -25.2048 31118.2481 69.7950 137.2781
ENERGY: 600000 0.9111 3.5624 21.4323 0.0000 -10855.0932 1446.4510 0.0000 0.0000 1739.3906 -7643.3458 292.4006 -9382.7364 -7623.0442 298.8027 -145.2750 -41.9212 30775.0657 -104.0721 -35.6415
ENERGY: 900000 0.0997 1.7766 23.7302 0.0000 -10896.7144 1454.5387 0.0000 0.0000 1800.8493 -7615.7200 302.7321 -9416.5693 -7623.2337 298.9544 -52.3277 -63.5679 30751.2983 -152.8900 -97.1918
ENERGY: 1200000 0.7266 1.5039 21.8038 0.0000 -10884.6581 1471.0006 0.0000 0.0000 1798.7346 -7590.8886 302.3766 -9389.6232 -7623.6815 299.3056 253.2555 328.9482 30408.7573 -153.4827 -100.9540
ENERGY: 1500000 0.0328 2.7358 23.2117 0.0000 -10879.5506 1437.3152 0.0000 0.0000 1739.2599 -7676.9952 292.3786 -9416.2551 -7634.9407 298.0989 -148.2787 -58.2849 30507.4761 -67.6379 -14.4370
TCL: Running FEP window  20: Lambda1 0.9500000000000003 Lambda2 1.0    [dLambda 0.04999999999999971]
TCL: Setting parameter firsttimestep to 0
TCL: Setting parameter alchLambda to 0.9500000000000003
Info: NONBONDED TABLE R-SQUARED SPACING: 0.0625
Info: NONBONDED TABLE SIZE: 705 POINTS
TCL: Setting parameter alchLambda2 to 1.0
Info: NONBONDED TABLE R-SQUARED SPACING: 0.0625
Info: NONBONDED TABLE SIZE: 705 POINTS
TCL: Running for 1500000 steps
ETITLE: TS BOND ANGLE DIHED IMPRP ELECT VDW BOUNDARY MISC KINETIC TOTAL TEMP POTENTIAL TOTALAVG TEMPAVG PRESSURE GPRESSURE VOLUME PRESSAVG GPRESSAVG
ENERGY: 0 0.0328 2.7358 23.2117 0.0000 -10880.0332 1437.7412 0.0000 0.0000 1738.3666 -7677.9451 292.2285 -9416.3117 -7677.9451 292.2285 -135.6091 -49.6127 30507.4761 -135.6091 -49.6127
ENERGY: 300000 0.4148 3.8830 20.8843 0.0000 -10976.6180 1538.5937 0.0000 0.0000 1784.6178 -7628.2244 300.0035 -9412.8422 -7658.2816 297.7757 763.8730 849.7786 30473.2596 -28.8146 62.6499
ENERGY: 600000 0.1705 4.3848 21.2523 0.0000 -10896.7642 1467.5203 0.0000 0.0000 1790.1275 -7613.3089 300.9297 -9403.4364 -7620.8087 299.2458 168.7646 195.8547 30560.0071 -64.3022 5.1739
ENERGY: 900000 0.2042 2.0327 21.4444 0.0000 -10761.8524 1336.1810 0.0000 0.0000 1820.4018 -7581.5883 306.0190 -9401.9901 -7624.6426 299.8253 -788.1754 -777.0608 30590.0647 -117.3951 -59.5423
ENERGY: 1200000 0.1836 4.5344 23.3416 0.0000 -10768.2828 1437.9649 0.0000 0.0000 1762.0295 -7540.2288 296.2063 -9302.2583 -7613.0817 300.0109 -103.2607 -44.7040 31093.5465 -158.1679 -94.4868
ENERGY: 1500000 2.5411 0.8810 23.4031 0.0000 -10743.3278 1394.5449 0.0000 0.0000 1747.0750 -7574.8828 293.6924 -9321.9578 -7620.2525 299.1348 -495.4514 -475.8690 30999.0901 -201.2242 -146.1855
TCL: Exiting due to exit command.
