Info: SIMULATION PARAMETERS:
Info: TIMESTEP               2
Info: NUMBER OF STEPS        0
Info: STEPS PER CYCLE        10
Info: PERIODIC CELL BASIS 1  44.591 0 0
Info: PERIODIC CELL BASIS 2  0 43.47 0
Info: PERIODIC CELL BASIS 3  0 0 44.319
Info: PERIODIC CELL CENTER   0 0 0
Info: WRAPPING WATERS AROUND PERIODIC BOUNDARIES ON OUTPUT.
Info: WRAPPING ALL CLUSTERS AROUND PERIODIC BOUNDARIES ON OUTPUT.
Info: FIRST LDB TIMESTEP     50
Info: LAST LDB TIMESTEP     -1
Info: HOM BACKGROUND SCALING 1
Info: PME BACKGROUND SCALING 1
Info: MIN ATOMS PER PATCH    40
Info: EMPTY PATCH LOAD       40 ATOMS
Info: INITIAL TEMPERATURE    300
Info: CENTER OF MASS MOVING INITIALLY? NO
Info: DIELECTRIC             1
Info: EXCLUDE                SCALED ONE-FOUR
Info: 1-4 ELECTROSTATICS SCALED BY 0.833333
Info: MODIFIED 1-4 VDW PARAMETERS WILL BE USED
Info: DCD FILENAME           mobley_667278_min.dcd
Info: DCD FREQUENCY          5000
Info: DCD FIRST STEP         5000
Info: DCD FILE WILL CONTAIN UNIT CELL DATA
Info: XST FILENAME           mobley_667278_min.xst
Info: XST FREQUENCY          5000
Info: NO VELOCITY DCD OUTPUT
Info: NO FORCE DCD OUTPUT
Info: OUTPUT FILENAME        mobley_667278_min
Info: BINARY OUTPUT FILES WILL BE USED
Info: RESTART FILENAME       mobley_667278_min.restart
Info: RESTART FREQUENCY      5000
Info: BINARY RESTART FILES WILL BE USED
Info: CUTOFF                 9
Info: PAIRLIST DISTANCE      11
Info: PAIRLIST SHRINK RATE   0.01
Info: PAIRLIST GROW RATE     0.01
Info: PAIRLIST TRIGGER       0.3
Info: PAIRLISTS PER CYCLE    2
Info: PAIRLISTS ENABLED
Info: MARGIN                 8
Info: HYDROGEN GROUP CUTOFF  2.5
Info: PATCH DIMENSION        21.5
Info: ENERGY OUTPUT STEPS    5000
Info: ENERGY EVALUATION STEPS    5000
Info: OUTPUT ENERGY PRECISION 4
Info: CROSSTERM ENERGY INCLUDED IN DIHEDRAL
Info: TIMING OUTPUT STEPS    50000
Info: PRESSURE OUTPUT STEPS  5000
Info: LANGEVIN DYNAMICS ACTIVE
Info: LANGEVIN TEMPERATURE   300
Info: LANGEVIN USING BBK INTEGRATOR
Info: LANGEVIN DAMPING COEFFICIENT IS 1 INVERSE PS
Info: LANGEVIN DYNAMICS APPLIED TO HYDROGENS
Info: LANGEVIN PISTON PRESSURE CONTROL ACTIVE
Info:        TARGET PRESSURE IS 1.01325 BAR
Info:     OSCILLATION PERIOD IS 50 FS
Info:             DECAY TIME IS 25 FS
Info:     PISTON TEMPERATURE IS 300 K
Info:       PRESSURE CONTROL IS GROUP-BASED
Info:    INITIAL STRAIN RATE IS 0 0 0
Info:       CELL FLUCTUATION IS ISOTROPIC
Info: PARTICLE MESH EWALD (PME) ACTIVE
Info: PME TOLERANCE               1e-06
Info: PME EWALD COEFFICIENT       0.348832
Info: PME INTERPOLATION ORDER     4
Info: PME GRID DIMENSIONS         48 44 48
Info: PME MAXIMUM GRID SPACING    1
Info: FULL ELECTROSTATIC EVALUATION FREQUENCY      2
Info: USING VERLET I (r-RESPA) MTS SCHEME.
Info: C1 SPLITTING OF LONG RANGE ELECTROSTATICS
Info: PLACING ATOMS IN PATCHES BY HYDROGEN GROUPS
Info: RIGID BONDS TO HYDROGEN : ALL
Info:         ERROR TOLERANCE : 1e-08
Info:          MAX ITERATIONS : 100
Info: RIGID WATER USING SETTLE ALGORITHM
Info: RANDOM NUMBER SEED     1741384230
Info: USE HYDROGEN BONDS?    NO
Info: Using AMBER format force field!
Info: AMBER PARM FILE        mobley_667278.prmtop
Info: COORDINATE PDB         mobley_667278.pdb
Info: Exclusions will be read from PARM file!
Info: SCNB (VDW SCALING)     2
Info: USING ARITHMETIC MEAN TO COMBINE L-J SIGMA PARAMETERS
Info: SUMMARY OF PARAMETERS:
Info: 7 BONDS
Info: 8 ANGLES
Info:   8 HARMONIC
Info:   0 COSINE-BASED
Info: 3 DIHEDRAL
Info: 0 IMPROPER
Info: 0 CROSSTERM
Info: 0 VDW
Info: 15 VDW_PAIRS
Info: 0 NBTHOLE_PAIRS
Info: STRUCTURE SUMMARY:
Info: 6226 ATOMS
Info: 6227 BONDS
Info: 36 ANGLES
Info: 60 DIHEDRALS
Info: 0 IMPROPERS
Info: 0 CROSSTERMS
Info: 6309 EXCLUSIONS
Info: 6207 RIGID BONDS
Info: 12471 DEGREES OF FREEDOM
Info: 2087 HYDROGEN GROUPS
Info: 3 ATOMS IN LARGEST HYDROGEN GROUP
Info: 2087 MIGRATION GROUPS
Info: 3 ATOMS IN LARGEST MIGRATION GROUP
Info: TOTAL MASS = 37652.4 amu
Info: TOTAL CHARGE = -0.000100005 e
Info: MASS DENSITY = 0.727822 g/cm^3
Info: ATOM DENSITY = 0.072474 atoms/A^3
Info: ADDED 0 IMPLICIT EXCLUSIONS
Info: NONBONDED TABLE R-SQUARED SPACING: 0.0625
Info: NONBONDED TABLE SIZE: 705 POINTS
Info: REMOVING COM VELOCITY -0.00826051 -0.0876565 0.0707556
TCL: Minimizing for 2000 steps
ETITLE: TS BOND ANGLE DIHED IMPRP ELECT VDW BOUNDARY MISC KINETIC TOTAL TEMP POTENTIAL TOTAL3 TEMPAVG PRESSURE GPRESSURE VOLUME PRESSAVG GPRESSAVG
ENERGY: 0 0.9584 1.4712 6.1204 0.0000 -19260.5562 2150.2223 0.0000 0.0000 0.0000 -17101.7839 0.0000 -17101.7839 -17101.7839 0.0000 11152.5722 -15753.1393 85906.6542 11152.5722 -15753.1393
ENERGY: 400 3.3462 2.3755 6.5873 0.0000 -26584.3503 4178.1859 0.0000 0.0000 0.0000 -22393.8553 0.0000 -22393.8553 -22393.8553 0.0000 17267.2680 17417.5912 85906.6542 17267.2680 17417.5912
ENERGY: 800 5.0052 2.4611 6.5002 0.0000 -27600.7720 4526.5694 0.0000 0.0000 0.0000 -23060.2362 0.0000 -23060.2362 -23060.2362 0.0000 18533.0428 18667.7915 85906.6542 18533.0428 18667.7915
ENERGY: 1200 1.2007 0.4213 5.8522 0.0000 -28145.6642 4755.9055 0.0000 0.0000 0.0000 -23382.2845 0.0000 -23382.2845 -23382.2845 0.0000 19446.8775 19566.1307 85906.6542 19446.8775 19566.1307
ENERGY: 1600 4.2598 1.7545 5.7667 0.0000 -28418.2675 4848.8115 0.0000 0.0000 0.0000 -23557.6750 0.0000 -23557.6750 -23557.6750 0.0000 19832.7943 19949.2512 85906.6542 19832.7943 19949.2512
ENERGY: 2000 0.7356 0.3532 5.4280 0.0000 -28585.9993 4933.1477 0.0000 0.0000 0.0000 -23646.3348 0.0000 -23646.3348 -23646.3348 0.0000 20180.7437 20294.5607 85906.6542 20180.7437 20294.5607
TCL: Exiting due to exit command.
Info: NAMD 3.0.1 for Linux-x86_64-multicore
Info: Please visit http://www.ks.uiuc.edu/Research/namd/
Info: for updates, documentation, and support information.
Info: Please cite Phillips et al., J. Chem. Phys. 153:044130 (2020) doi:10.1063/5.0014475
Info: in all publications reporting results obtained with NAMD.
Info: Based on Charm++/Converse 80000 for multicore-linux-x86_64-gcc
Info: Built Mon Oct 14 11:11:06 CDT 2024 by dhardy on athine.ks.uiuc.edu
Info: 1 NAMD  3.0.1  Linux-x86_64-multicore  16    k007  z5358697
Info: Running on 16 processors, 1 nodes, 1 physical nodes.
Info: CPU topology information available.
Info: Charm++/Converse parallel runtime startup completed at 0.00972129 s
Info: 1043.45 MB of memory in use based on /proc/self/stat
Info: Configuration file is mobley_667278_equil.namd
Info: Working in the current directory /srv/scratch/z5358697/prod_prep_8/667278
TCL: Running 25000 steps at 30 kelvin.
TCL: Suspending until startup complete.
Info: SIMULATION PARAMETERS:
Info: TIMESTEP               2
Info: NUMBER OF STEPS        0
Info: STEPS PER CYCLE        10
Info: PERIODIC CELL BASIS 1  44.591 0 0
Info: PERIODIC CELL BASIS 2  0 43.47 0
Info: PERIODIC CELL BASIS 3  0 0 44.319
Info: PERIODIC CELL CENTER   0 0 0
Info: WRAPPING WATERS AROUND PERIODIC BOUNDARIES ON OUTPUT.
Info: WRAPPING ALL CLUSTERS AROUND PERIODIC BOUNDARIES ON OUTPUT.
Info: FIRST LDB TIMESTEP     50
Info: LAST LDB TIMESTEP     -1
Info: HOM BACKGROUND SCALING 1
Info: PME BACKGROUND SCALING 1
Info: MIN ATOMS PER PATCH    40
Info: EMPTY PATCH LOAD       40 ATOMS
Info: INITIAL TEMPERATURE    300
Info: CENTER OF MASS MOVING INITIALLY? NO
Info: DIELECTRIC             1
Info: EXCLUDE                SCALED ONE-FOUR
Info: 1-4 ELECTROSTATICS SCALED BY 0.833333
Info: MODIFIED 1-4 VDW PARAMETERS WILL BE USED
Info: DCD FILENAME           mobley_667278_equil.dcd
Info: DCD FREQUENCY          5000
Info: DCD FIRST STEP         5000
Info: DCD FILE WILL CONTAIN UNIT CELL DATA
Info: XST FILENAME           mobley_667278_equil.xst
Info: XST FREQUENCY          5000
Info: NO VELOCITY DCD OUTPUT
Info: NO FORCE DCD OUTPUT
Info: OUTPUT FILENAME        mobley_667278_equil
Info: BINARY OUTPUT FILES WILL BE USED
Info: RESTART FILENAME       mobley_667278_equil.restart
Info: RESTART FREQUENCY      5000
Info: BINARY RESTART FILES WILL BE USED
Info: CUTOFF                 9
Info: PAIRLIST DISTANCE      11
Info: PAIRLIST SHRINK RATE   0.01
Info: PAIRLIST GROW RATE     0.01
Info: PAIRLIST TRIGGER       0.3
Info: PAIRLISTS PER CYCLE    2
Info: PAIRLISTS ENABLED
Info: MARGIN                 8
Info: HYDROGEN GROUP CUTOFF  2.5
Info: PATCH DIMENSION        21.5
Info: ENERGY OUTPUT STEPS    5000
Info: ENERGY EVALUATION STEPS    5000
Info: OUTPUT ENERGY PRECISION 4
Info: CROSSTERM ENERGY INCLUDED IN DIHEDRAL
Info: TIMING OUTPUT STEPS    50000
Info: PRESSURE OUTPUT STEPS  5000
Info: LANGEVIN DYNAMICS ACTIVE
Info: LANGEVIN TEMPERATURE   30
Info: LANGEVIN USING BBK INTEGRATOR
Info: LANGEVIN DAMPING COEFFICIENT IS 1 INVERSE PS
Info: LANGEVIN DYNAMICS APPLIED TO HYDROGENS
Info: LANGEVIN PISTON PRESSURE CONTROL ACTIVE
Info:        TARGET PRESSURE IS 1.01325 BAR
Info:     OSCILLATION PERIOD IS 50 FS
Info:             DECAY TIME IS 25 FS
Info:     PISTON TEMPERATURE IS 300 K
Info:       PRESSURE CONTROL IS GROUP-BASED
Info:    INITIAL STRAIN RATE IS 0 0 0
Info:       CELL FLUCTUATION IS ISOTROPIC
Info: PARTICLE MESH EWALD (PME) ACTIVE
Info: PME TOLERANCE               1e-06
Info: PME EWALD COEFFICIENT       0.348832
Info: PME INTERPOLATION ORDER     4
Info: PME GRID DIMENSIONS         48 44 48
Info: PME MAXIMUM GRID SPACING    1
Info: FULL ELECTROSTATIC EVALUATION FREQUENCY      2
Info: USING VERLET I (r-RESPA) MTS SCHEME.
Info: C1 SPLITTING OF LONG RANGE ELECTROSTATICS
Info: PLACING ATOMS IN PATCHES BY HYDROGEN GROUPS
Info: RIGID BONDS TO HYDROGEN : ALL
Info:         ERROR TOLERANCE : 1e-08
Info:          MAX ITERATIONS : 100
Info: RIGID WATER USING SETTLE ALGORITHM
Info: RANDOM NUMBER SEED     1741384259
Info: USE HYDROGEN BONDS?    NO
Info: Using AMBER format force field!
Info: AMBER PARM FILE        mobley_667278.prmtop
Info: COORDINATE PDB         mobley_667278.pdb
Info: Exclusions will be read from PARM file!
Info: SCNB (VDW SCALING)     2
Info: USING ARITHMETIC MEAN TO COMBINE L-J SIGMA PARAMETERS
Info: BINARY COORDINATES     mobley_667278_min.coor
Info: SUMMARY OF PARAMETERS:
Info: 7 BONDS
Info: 8 ANGLES
Info:   8 HARMONIC
Info:   0 COSINE-BASED
Info: 3 DIHEDRAL
Info: 0 IMPROPER
Info: 0 CROSSTERM
Info: 0 VDW
Info: 15 VDW_PAIRS
Info: 0 NBTHOLE_PAIRS
Info: STRUCTURE SUMMARY:
Info: 6226 ATOMS
Info: 6227 BONDS
Info: 36 ANGLES
Info: 60 DIHEDRALS
Info: 0 IMPROPERS
Info: 0 CROSSTERMS
Info: 6309 EXCLUSIONS
Info: 6207 RIGID BONDS
Info: 12471 DEGREES OF FREEDOM
Info: 2087 HYDROGEN GROUPS
Info: 3 ATOMS IN LARGEST HYDROGEN GROUP
Info: 2087 MIGRATION GROUPS
Info: 3 ATOMS IN LARGEST MIGRATION GROUP
Info: TOTAL MASS = 37652.4 amu
Info: TOTAL CHARGE = -0.000100005 e
Info: MASS DENSITY = 0.727822 g/cm^3
Info: ATOM DENSITY = 0.072474 atoms/A^3
Info: ADDED 0 IMPLICIT EXCLUSIONS
Info: NONBONDED TABLE R-SQUARED SPACING: 0.0625
Info: NONBONDED TABLE SIZE: 705 POINTS
Info: REMOVING COM VELOCITY 0.0615557 -0.0514719 0.123206
TCL: Running for 25000 steps
ETITLE: TS BOND ANGLE DIHED IMPRP ELECT VDW BOUNDARY MISC KINETIC TOTAL TEMP POTENTIAL TOTAL3 TEMPAVG PRESSURE GPRESSURE VOLUME PRESSAVG GPRESSAVG
ENERGY: 0 0.7356 0.3532 5.4280 0.0000 -28585.9993 4933.1477 0.0000 0.0000 3672.4539 -19973.8809 296.3777 -23646.3348 -19973.1540 296.3777 255.7034 293.1457 85906.6542 255.7034 293.1457
ENERGY: 5000 1.8873 0.6755 5.2959 0.0000 -29630.6594 4982.0811 0.0000 0.0000 380.3601 -24260.3595 30.6962 -24640.7196 -24259.4428 47.3090 -768.9465 -713.1231 60972.0941 0.2415 0.2127
ENERGY: 10000 0.8594 0.9091 5.8021 0.0000 -30017.1849 5344.3316 0.0000 0.0000 365.5444 -24299.7382 29.5005 -24665.2826 -24298.7050 30.0451 766.9664 808.8545 60368.9756 2.0975 1.9884
ENERGY: 15000 0.7434 0.9493 5.4579 0.0000 -30011.6150 5297.7037 0.0000 0.0000 370.2108 -24336.5500 29.8771 -24706.7608 -24335.8386 30.2472 493.4272 559.4315 60361.9892 2.4134 2.4413
ENERGY: 20000 1.0842 0.6069 5.7730 0.0000 -29753.1455 5018.8199 0.0000 0.0000 375.4885 -24351.3730 30.3030 -24726.8615 -24350.3804 30.1995 -667.9396 -615.9801 60632.5615 0.5425 0.4161
ENERGY: 25000 1.5670 0.8183 5.5386 0.0000 -29895.5693 5126.0720 0.0000 0.0000 374.2769 -24387.2965 30.2052 -24761.5734 -24386.0458 30.0573 -233.0600 -192.8201 60315.4204 1.9717 1.6378
TCL: Running 25000 steps at 60 kelvin.
TCL: Setting parameter langevinTemp to 60
TCL: Running for 25000 steps
ETITLE: TS BOND ANGLE DIHED IMPRP ELECT VDW BOUNDARY MISC KINETIC TOTAL TEMP POTENTIAL TOTAL3 TEMPAVG PRESSURE GPRESSURE VOLUME PRESSAVG GPRESSAVG
ENERGY: 25000 1.5670 0.8183 5.5386 0.0000 -29895.5693 5126.0720 0.0000 0.0000 374.0948 -24387.4786 30.1905 -24761.5734 -24386.6586 30.1905 -244.9128 -192.6740 60315.4204 -244.9128 -192.6740
ENERGY: 30000 1.1943 0.9124 6.8156 0.0000 -29543.0629 5105.6208 0.0000 0.0000 756.7805 -23671.7393 61.0744 -24428.5198 -23670.2698 56.8690 393.0399 453.7859 60186.6829 2.7637 2.5799
ENERGY: 35000 1.5704 1.2257 6.9628 0.0000 -29590.1910 5086.5735 0.0000 0.0000 750.9131 -23742.9456 60.6009 -24493.8587 -23741.0299 60.3409 220.9331 275.3359 60012.6963 5.2619 5.6636
ENERGY: 40000 1.9799 0.6466 6.3179 0.0000 -29704.6276 5159.8917 0.0000 0.0000 741.9801 -23793.8113 59.8799 -24535.7915 -23791.9233 60.2467 489.5585 563.0396 59718.8927 2.0722 2.0918
ENERGY: 45000 1.6003 1.5349 6.3372 0.0000 -29684.2964 5091.1571 0.0000 0.0000 752.1721 -23831.4948 60.7025 -24583.6668 -23829.1299 60.3204 121.6113 202.9313 59737.8336 -0.0100 0.2334
ENERGY: 50000 1.9442 1.2290 5.9911 0.0000 -29643.1642 5046.0776 0.0000 0.0000 751.1080 -23836.8144 60.6166 -24587.9224 -23834.3250 60.1482 -76.8469 -26.4976 59812.8966 0.7510 0.6164
TCL: Running 25000 steps at 90 kelvin.
TCL: Setting parameter langevinTemp to 90
TCL: Running for 25000 steps
ETITLE: TS BOND ANGLE DIHED IMPRP ELECT VDW BOUNDARY MISC KINETIC TOTAL TEMP POTENTIAL TOTAL3 TEMPAVG PRESSURE GPRESSURE VOLUME PRESSAVG GPRESSAVG
ENERGY: 50000 1.9442 1.2290 5.9911 0.0000 -29643.1642 5046.0776 0.0000 0.0000 750.7553 -23837.1671 60.5881 -24587.9224 -23835.7188 60.5881 -84.8002 -26.1107 59812.8966 -84.8002 -26.1107
ENERGY: 55000 3.6720 1.8458 7.1308 0.0000 -28934.1640 4692.1649 0.0000 0.0000 1127.3598 -23101.9908 90.9812 -24229.3506 -23099.5755 86.9493 -897.3257 -850.9677 60362.7877 1.9759 1.6533
ENERGY: 60000 3.3954 3.1155 7.0558 0.0000 -29049.0936 4747.7405 0.0000 0.0000 1120.0446 -23167.7418 90.3908 -24287.7863 -23164.5177 90.2123 -737.4720 -688.2935 60251.3641 4.9369 4.7518
ENERGY: 65000 2.5180 2.1957 5.2359 0.0000 -29294.2699 4990.3310 0.0000 0.0000 1134.5377 -23159.4515 91.5605 -24293.9892 -23156.4611 89.7377 281.9481 334.7676 59705.4483 0.0388 -0.1760
ENERGY: 70000 1.9286 1.7019 5.9525 0.0000 -29128.4578 4821.2049 0.0000 0.0000 1118.2469 -23179.4231 90.2458 -24297.6700 -23176.8152 90.5398 -455.7312 -398.0305 59946.0136 0.8560 0.9646
ENERGY: 75000 1.2644 0.9156 6.6759 0.0000 -29233.4222 4896.5353 0.0000 0.0000 1107.3479 -23220.6830 89.3662 -24328.0309 -23218.4404 90.1378 -243.2186 -190.7988 60151.0244 3.2702 3.2163
TCL: Running 25000 steps at 120 kelvin.
TCL: Setting parameter langevinTemp to 120
TCL: Running for 25000 steps
ETITLE: TS BOND ANGLE DIHED IMPRP ELECT VDW BOUNDARY MISC KINETIC TOTAL TEMP POTENTIAL TOTAL3 TEMPAVG PRESSURE GPRESSURE VOLUME PRESSAVG GPRESSAVG
ENERGY: 75000 1.2644 0.9156 6.6759 0.0000 -29233.4222 4896.5353 0.0000 0.0000 1106.8050 -23221.2260 89.3224 -24328.0309 -23218.7507 89.3224 -237.5031 -191.4335 60151.0244 -237.5031 -191.4335
ENERGY: 80000 1.9561 3.1860 7.3037 0.0000 -28770.0055 4860.4304 0.0000 0.0000 1499.1513 -22397.9780 120.9858 -23897.1293 -22393.1088 117.3676 513.8061 576.4044 59844.8465 2.0977 2.2054
ENERGY: 85000 4.9040 1.5053 7.0145 0.0000 -28676.7411 4716.2174 0.0000 0.0000 1490.8703 -22456.2295 120.3175 -23947.0999 -22452.7215 120.4543 -275.6614 -245.5488 60212.9102 -1.0820 -1.0442
ENERGY: 90000 2.7817 2.1641 5.8829 0.0000 -28973.3577 4957.7980 0.0000 0.0000 1470.4490 -22534.2821 118.6695 -24004.7310 -22530.8901 119.6704 625.3441 694.6983 59790.5588 0.7017 0.7667
ENERGY: 95000 1.9236 3.7004 6.1349 0.0000 -28706.2393 4692.0566 0.0000 0.0000 1524.4653 -22477.9586 123.0288 -24002.4239 -22473.4854 120.2908 -434.5390 -379.4140 60390.9426 4.2107 4.2341
ENERGY: 100000 3.6930 1.5344 8.8895 0.0000 -28747.2295 4742.4624 0.0000 0.0000 1490.8954 -22499.7549 120.3196 -23990.6503 -22496.9677 120.6851 -314.7373 -259.7277 60354.2883 4.1273 4.1617
TCL: Running 25000 steps at 150 kelvin.
TCL: Setting parameter langevinTemp to 150
TCL: Running for 25000 steps
ETITLE: TS BOND ANGLE DIHED IMPRP ELECT VDW BOUNDARY MISC KINETIC TOTAL TEMP POTENTIAL TOTAL3 TEMPAVG PRESSURE GPRESSURE VOLUME PRESSAVG GPRESSAVG
ENERGY: 100000 3.6930 1.5344 8.8895 0.0000 -28747.2295 4742.4624 0.0000 0.0000 1490.1646 -22500.4857 120.2606 -23990.6503 -22497.3660 120.2606 -320.4961 -260.2901 60354.2883 -320.4961 -260.2901
ENERGY: 105000 4.3366 2.1533 9.8596 0.0000 -28194.9470 4633.5968 0.0000 0.0000 1860.9046 -21684.0960 150.1804 -23545.0006 -21680.9280 146.8967 -30.4394 23.9199 60760.0073 8.0666 8.1480
ENERGY: 110000 4.1380 2.2929 6.4155 0.0000 -28127.1839 4513.8212 0.0000 0.0000 1887.2579 -21713.2584 152.3072 -23600.5163 -21707.8096 150.4748 -543.1072 -514.6867 60952.8162 -2.0251 -2.3684
ENERGY: 115000 3.9358 2.6195 6.6621 0.0000 -28111.7566 4483.7208 0.0000 0.0000 1843.3201 -21771.4983 148.7613 -23614.8184 -21767.2101 150.6024 -800.3469 -676.0711 61057.6632 3.8844 3.4427
ENERGY: 120000 3.5268 3.6571 6.4190 0.0000 -28335.2818 4741.9214 0.0000 0.0000 1862.3426 -21717.4149 150.2964 -23579.7576 -21712.3420 149.2780 373.4030 447.9327 60426.6326 3.1190 3.5373
ENERGY: 125000 2.6883 3.2013 7.7038 0.0000 -28341.1843 4679.0921 0.0000 0.0000 1851.2498 -21797.2490 149.4012 -23648.4987 -21793.2111 150.4692 25.3720 77.3464 60629.4757 6.8681 7.2619
TCL: Running 50000 steps at 180 kelvin.
TCL: Setting parameter langevinTemp to 180
TCL: Running for 50000 steps
ETITLE: TS BOND ANGLE DIHED IMPRP ELECT VDW BOUNDARY MISC KINETIC TOTAL TEMP POTENTIAL TOTAL3 TEMPAVG PRESSURE GPRESSURE VOLUME PRESSAVG GPRESSAVG
ENERGY: 125000 2.6883 3.2013 7.7038 0.0000 -28341.1843 4679.0921 0.0000 0.0000 1850.3188 -21798.1799 149.3261 -23648.4988 -21794.3213 149.3261 15.7630 76.7999 60629.4757 15.7630 76.7999
ENERGY: 135000 3.5541 3.4860 8.9319 0.0000 -27607.5921 4451.2801 0.0000 0.0000 2241.3344 -20899.0056 180.8822 -23140.3400 -20893.8212 180.1943 -186.1390 -156.4537 61399.1623 -1.9211 -1.6463
ENERGY: 145000 3.5178 1.9446 7.5517 0.0000 -27530.5296 4386.1019 0.0000 0.0000 2218.6383 -20912.7754 179.0505 -23131.4137 -20907.7756 179.9278 -158.5439 -98.0856 60820.7030 3.4587 3.4180
ENERGY: 155000 4.3609 3.5649 8.1623 0.0000 -27554.9031 4355.6451 0.0000 0.0000 2268.4917 -20914.6782 183.0738 -23183.1699 -20908.9594 179.5509 -322.1465 -266.8782 60646.0595 0.7510 0.4221
ENERGY: 165000 4.0998 4.3935 8.5542 0.0000 -27697.7964 4464.3823 0.0000 0.0000 2201.8949 -21014.4716 177.6993 -23216.3665 -21009.8497 180.7601 -103.5922 -38.3976 61013.5285 6.6287 6.6567
ENERGY: 175000 4.2440 4.9700 8.5616 0.0000 -27478.4307 4364.7095 0.0000 0.0000 2214.7230 -20881.2227 178.7346 -23095.9456 -20876.4155 178.7003 -520.0991 -442.0803 61788.8728 4.0051 4.2020
TCL: Running 50000 steps at 210 kelvin.
TCL: Setting parameter langevinTemp to 210
TCL: Running for 50000 steps
ETITLE: TS BOND ANGLE DIHED IMPRP ELECT VDW BOUNDARY MISC KINETIC TOTAL TEMP POTENTIAL TOTAL3 TEMPAVG PRESSURE GPRESSURE VOLUME PRESSAVG GPRESSAVG
ENERGY: 175000 4.2440 4.9700 8.5616 0.0000 -27478.4307 4364.7095 0.0000 0.0000 2213.5859 -20882.3597 178.6428 -23095.9457 -20878.4476 178.6428 -499.3143 -442.3359 61788.8728 -499.3143 -442.3359
ENERGY: 185000 3.4095 4.5021 8.8666 0.0000 -26198.5070 3912.5006 0.0000 0.0000 2609.2743 -19659.9538 210.5760 -22269.2281 -19653.4299 209.6966 -552.6860 -490.6632 61402.3509 -0.2033 -0.3136
ENERGY: 195000 3.6336 4.5570 9.7146 0.0000 -26087.4977 3850.0243 0.0000 0.0000 2560.5248 -19659.0435 206.6418 -22219.5682 -19650.8487 210.6896 -543.6359 -483.4500 60590.5155 1.1469 1.4107
ENERGY: 205000 1.1152 2.5899 7.4360 0.0000 -26279.0759 4089.0347 0.0000 0.0000 2658.7313 -19520.1688 214.5673 -22178.9001 -19513.0868 210.7263 368.2024 462.4378 60945.3720 1.3454 1.3903
ENERGY: 215000 2.3848 4.7976 8.5695 0.0000 -26077.5093 3872.4157 0.0000 0.0000 2628.5873 -19560.7544 212.1346 -22189.3417 -19555.2730 210.6854 -338.4961 -305.1582 60437.8659 3.6979 3.4382
ENERGY: 225000 4.1620 2.9348 6.8876 0.0000 -26150.4204 3932.5880 0.0000 0.0000 2595.2717 -19608.5763 209.4459 -22203.8480 -19604.2334 209.0920 -378.2892 -288.6843 61050.8032 4.3573 3.7318
TCL: Running 50000 steps at 240 kelvin.
TCL: Setting parameter langevinTemp to 240
TCL: Running for 50000 steps
ETITLE: TS BOND ANGLE DIHED IMPRP ELECT VDW BOUNDARY MISC KINETIC TOTAL TEMP POTENTIAL TOTAL3 TEMPAVG PRESSURE GPRESSURE VOLUME PRESSAVG GPRESSAVG
ENERGY: 225000 4.1620 2.9348 6.8876 0.0000 -26150.4204 3932.5880 0.0000 0.0000 2593.9927 -19609.8553 209.3427 -22203.8480 -19605.0550 209.3427 -361.8429 -288.9392 61050.8032 -361.8429 -288.9392
ENERGY: 235000 3.8881 2.6593 8.5345 0.0000 -24939.7578 3578.5475 0.0000 0.0000 2987.4777 -18358.6507 241.0981 -21346.1284 -18354.3279 238.8005 -238.9869 -133.5835 61416.8565 -2.5640 -2.2427
ENERGY: 245000 6.2811 4.2099 10.2930 0.0000 -24854.0985 3578.6533 0.0000 0.0000 2939.6107 -18315.0505 237.2351 -21254.6612 -18307.1641 238.2838 -105.1826 -17.3284 61065.8415 5.7592 5.5962
ENERGY: 255000 3.5074 5.2684 7.4440 0.0000 -24797.6358 3485.8319 0.0000 0.0000 3047.7869 -18247.7970 245.9652 -21295.5840 -18243.3755 240.8585 -505.2382 -404.5230 61435.6774 -0.0721 -0.1795
ENERGY: 265000 2.9944 4.6336 9.3245 0.0000 -24772.6023 3505.2912 0.0000 0.0000 2897.9262 -18352.4323 233.8710 -21250.3585 -18346.3860 238.8802 -464.5902 -361.5796 61031.2070 0.6903 0.7070
ENERGY: 275000 4.8163 3.5110 7.6317 0.0000 -24840.0105 3556.4992 0.0000 0.0000 2983.4471 -18284.1053 240.7728 -21267.5523 -18276.4830 238.8263 -243.3394 -196.5414 61430.9851 3.7718 3.6788
TCL: Running 50000 steps at 270 kelvin.
TCL: Setting parameter langevinTemp to 270
TCL: Running for 50000 steps
ETITLE: TS BOND ANGLE DIHED IMPRP ELECT VDW BOUNDARY MISC KINETIC TOTAL TEMP POTENTIAL TOTAL3 TEMPAVG PRESSURE GPRESSURE VOLUME PRESSAVG GPRESSAVG
ENERGY: 275000 4.8163 3.5110 7.6317 0.0000 -24840.0105 3556.4992 0.0000 0.0000 2981.9567 -18285.5956 240.6525 -21267.5523 -18280.8099 240.6525 -280.3812 -195.1313 61430.9851 -280.3812 -195.1313
ENERGY: 285000 4.2009 5.6800 8.5828 0.0000 -23640.7151 3312.1877 0.0000 0.0000 3281.9834 -17028.0803 264.8656 -20310.0637 -17020.2721 269.9004 147.2712 244.2011 62429.0142 1.6386 1.7151
ENERGY: 295000 6.6257 3.4546 11.0377 0.0000 -23748.8277 3356.5004 0.0000 0.0000 3294.6410 -17076.5682 265.8871 -20371.2092 -17070.2947 271.0291 201.8712 262.9611 62339.2430 0.8022 0.8720
ENERGY: 305000 7.2326 3.6854 8.8146 0.0000 -23633.4834 3250.5950 0.0000 0.0000 3341.5791 -17021.5767 269.6751 -20363.1558 -17014.2742 270.6740 -17.6555 84.2259 62384.8479 1.2944 1.2825
ENERGY: 315000 5.8341 4.3997 10.2840 0.0000 -23475.3338 3223.7231 0.0000 0.0000 3374.7581 -16856.3348 272.3527 -20231.0929 -16850.4128 269.9876 -179.9702 -115.6574 63076.0090 5.0536 5.1982
ENERGY: 325000 5.4010 7.1034 10.6466 0.0000 -23712.5382 3278.1435 0.0000 0.0000 3254.0183 -17157.2255 262.6087 -20411.2437 -17151.1005 268.4661 -203.6659 -127.8671 62703.1005 -1.3513 -0.8654
TCL: Running 1000000 steps at 300 kelvin.
TCL: Setting parameter langevinTemp to 300
TCL: Running for 1000000 steps
ETITLE: TS BOND ANGLE DIHED IMPRP ELECT VDW BOUNDARY MISC KINETIC TOTAL TEMP POTENTIAL TOTAL3 TEMPAVG PRESSURE GPRESSURE VOLUME PRESSAVG GPRESSAVG
ENERGY: 325000 5.4010 7.1034 10.6466 0.0000 -23712.5382 3278.1435 0.0000 0.0000 3252.3555 -17158.8882 262.4745 -20411.2437 -17154.0265 262.4745 -220.0165 -128.3318 62703.1005 -220.0165 -128.3318
ENERGY: 525000 6.0734 5.7650 7.9205 0.0000 -22537.2389 3005.8876 0.0000 0.0000 3688.0592 -15823.5332 297.6370 -19511.5924 -15817.5604 300.0838 -35.0639 6.6549 64227.3194 0.7328 0.8663
ENERGY: 725000 4.3588 2.6461 12.1331 0.0000 -22525.4561 2982.2563 0.0000 0.0000 3746.4835 -15777.5783 302.3521 -19524.0618 -15770.3960 300.3314 -30.8886 11.4666 63764.4203 0.1849 0.4342
ENERGY: 925000 5.1630 8.0625 9.7601 0.0000 -22732.6741 3101.2568 0.0000 0.0000 3747.1728 -15861.2590 302.4077 -19608.4318 -15850.2422 298.9934 238.1124 316.7938 64054.6263 -1.7846 -1.4269
ENERGY: 1125000 5.2794 4.0307 10.0690 0.0000 -22557.9341 2936.9815 0.0000 0.0000 3640.2561 -15961.3174 293.7792 -19601.5735 -15959.7546 300.8046 -325.0260 -218.3141 63694.5155 4.1102 3.9680
ENERGY: 1325000 5.6834 2.9867 10.3327 0.0000 -22381.4964 2895.3367 0.0000 0.0000 3659.8857 -15807.2711 295.3634 -19467.1569 -15799.8616 301.5814 -200.8575 -153.7520 63893.1671 4.5699 5.3991
TCL: Exiting due to exit command.
