Info: SIMULATION PARAMETERS:
Info: TIMESTEP               2
Info: NUMBER OF STEPS        0
Info: STEPS PER CYCLE        10
Info: PERIODIC CELL BASIS 1  31.7359 0 0
Info: PERIODIC CELL BASIS 2  0 31.2124 0
Info: PERIODIC CELL BASIS 3  0 0 30.8095
Info: PERIODIC CELL CENTER   0 0 0
Info: WRAPPING WATERS AROUND PERIODIC BOUNDARIES ON OUTPUT.
Info: WRAPPING ALL CLUSTERS AROUND PERIODIC BOUNDARIES ON OUTPUT.
Info: FIRST LDB TIMESTEP     50
Info: LAST LDB TIMESTEP     -1
Info: HOM BACKGROUND SCALING 1
Info: PME BACKGROUND SCALING 1
Info: MIN ATOMS PER PATCH    40
Info: EMPTY PATCH LOAD       40 ATOMS
Info: VELOCITY FILE          mobley_2410897_equil.vel
Info: CENTER OF MASS MOVING INITIALLY? NO
Info: DIELECTRIC             1
Info: EXCLUDE                SCALED ONE-FOUR
Info: 1-4 ELECTROSTATICS SCALED BY 0.833333
Info: MODIFIED 1-4 VDW PARAMETERS WILL BE USED
Info: DCD FILENAME           mobley_2410897_prod.dcd
Info: DCD FREQUENCY          100000
Info: DCD FIRST STEP         100000
Info: DCD FILE WILL CONTAIN UNIT CELL DATA
Info: XST FILENAME           mobley_2410897_prod.xst
Info: XST FREQUENCY          100000
Info: NO VELOCITY DCD OUTPUT
Info: NO FORCE DCD OUTPUT
Info: OUTPUT FILENAME        mobley_2410897_prod
Info: BINARY OUTPUT FILES WILL BE USED
Info: RESTART FILENAME       mobley_2410897_prod.restart
Info: RESTART FREQUENCY      100000
Info: BINARY RESTART FILES WILL BE USED
Info: CUTOFF                 9
Info: PAIRLIST DISTANCE      11
Info: PAIRLIST SHRINK RATE   0.01
Info: PAIRLIST GROW RATE     0.01
Info: PAIRLIST TRIGGER       0.3
Info: PAIRLISTS PER CYCLE    2
Info: PAIRLISTS ENABLED
Info: MARGIN                 2
Info: HYDROGEN GROUP CUTOFF  2.5
Info: PATCH DIMENSION        15.5
Info: ENERGY OUTPUT STEPS    100000
Info: ENERGY EVALUATION STEPS    100000
Info: OUTPUT ENERGY PRECISION 4
Info: CROSSTERM ENERGY INCLUDED IN DIHEDRAL
Info: TIMING OUTPUT STEPS    1000000
Info: PRESSURE OUTPUT STEPS  100000
Info: ALCHEMICAL FEP ON
Info: FEP CURRENT LAMBDA VALUE     0
Info: FEP COMPARISON LAMBDA VALUE  0.05
Info: FEP INTRA-ALCHEMICAL NON-BONDED INTERACTIONS WILL BE RETAINED
Info: FEP INTRA-ALCHEMICAL BONDED INTERACTIONS WILL BE RETAINED
Info: FEP VDW SHIFTING COEFFICIENT 5
Info: FEP ELEC. ACTIVE FOR ANNIHILATED PARTICLES BETWEEN LAMBDA = 0 AND LAMBDA = 0.5
Info: FEP ELEC. ACTIVE FOR EXNIHILATED PARTICLES BETWEEN LAMBDA = 0.5 AND LAMBDA = 1
Info: FEP VDW ACTIVE FOR ANNIHILATED PARTICLES BETWEEN LAMBDA = 0 AND LAMBDA = 1
Info: FEP VDW ACTIVE FOR EXNIHILATED PARTICLES BETWEEN LAMBDA = 0 AND LAMBDA = 1
Info: FEP BOND ACTIVE FOR ANNIHILATED PARTICLES BETWEEN LAMBDA = 1 AND LAMBDA = 1
Info: FEP BOND ACTIVE FOR EXNIHILATED PARTICLES BETWEEN LAMBDA = 0 AND LAMBDA = 0
Info: LANGEVIN DYNAMICS ACTIVE
Info: LANGEVIN TEMPERATURE   300
Info: LANGEVIN USING BBK INTEGRATOR
Info: LANGEVIN DAMPING COEFFICIENT IS 1 INVERSE PS
Info: LANGEVIN DYNAMICS APPLIED TO HYDROGENS
Info: LANGEVIN PISTON PRESSURE CONTROL ACTIVE
Info:        TARGET PRESSURE IS 1.01325 BAR
Info:     OSCILLATION PERIOD IS 50 FS
Info:             DECAY TIME IS 25 FS
Info:     PISTON TEMPERATURE IS 300 K
Info:       PRESSURE CONTROL IS GROUP-BASED
Info:    INITIAL STRAIN RATE IS 0.000356091 0.000356091 0.000356091
Info:       CELL FLUCTUATION IS ISOTROPIC
Info: PARTICLE MESH EWALD (PME) ACTIVE
Info: PME TOLERANCE               1e-06
Info: PME EWALD COEFFICIENT       0.348832
Info: PME INTERPOLATION ORDER     4
Info: PME GRID DIMENSIONS         32 32 32
Info: PME MAXIMUM GRID SPACING    1
Info: PME CALCULATION WILL BE PERFORMED ON GPU
Info: FULL ELECTROSTATIC EVALUATION FREQUENCY      2
Info: USING VERLET I (r-RESPA) MTS SCHEME.
Info: C1 SPLITTING OF LONG RANGE ELECTROSTATICS
Info: PLACING ATOMS IN PATCHES BY HYDROGEN GROUPS
Info: RIGID BONDS TO HYDROGEN : ALL
Info:         ERROR TOLERANCE : 1e-08
Info:          MAX ITERATIONS : 100
Info: RIGID WATER USING SETTLE ALGORITHM
Info: RANDOM NUMBER SEED     1742512437
Info: USE HYDROGEN BONDS?    NO
Info: Using AMBER format force field!
Info: AMBER PARM FILE        mobley_2410897.prmtop
Info: COORDINATE PDB         mobley_2410897.pdb
Info: Exclusions will be read from PARM file!
Info: SCNB (VDW SCALING)     2
Info: USING ARITHMETIC MEAN TO COMBINE L-J SIGMA PARAMETERS
Info: BINARY COORDINATES     mobley_2410897_equil.coor
Info: SUMMARY OF PARAMETERS:
Info: 7 BONDS
Info: 8 ANGLES
Info:   8 HARMONIC
Info:   0 COSINE-BASED
Info: 4 DIHEDRAL
Info: 0 IMPROPER
Info: 0 CROSSTERM
Info: 0 VDW
Info: 28 VDW_PAIRS
Info: 0 NBTHOLE_PAIRS
Info: To read alchdata from file: mobley_2410897.pdb
Info: To read alchflag data from column: 5
Info: STRUCTURE SUMMARY:
Info: 2968 ATOMS
Info: 2967 BONDS
Info: 15 ANGLES
Info: 15 DIHEDRALS
Info: 0 IMPROPERS
Info: 0 CROSSTERMS
Info: 2997 EXCLUSIONS
Info: 2965 RIGID BONDS
Info: ALCH: 0 ATOMS TO DISAPPEAR IN FINAL STATE
Info: ALCH: 10 ATOMS TO APPEAR IN FINAL STATE
Info: 5939 DEGREES OF FREEDOM
Info: 989 HYDROGEN GROUPS
Info: 4 ATOMS IN LARGEST HYDROGEN GROUP
Info: 989 MIGRATION GROUPS
Info: 4 ATOMS IN LARGEST MIGRATION GROUP
Info: TOTAL MASS = 17808.9 amu
Info: TOTAL CHARGE = -0.000100013 e
Info: MASS DENSITY = 0.969019 g/cm^3
Info: ATOM DENSITY = 0.0972525 atoms/A^3
Info: ADDED 0 IMPLICIT EXCLUSIONS
Info: NONBONDED TABLE R-SQUARED SPACING: 0.0625
Info: NONBONDED TABLE SIZE: 705 POINTS
Info: REDUCING NUMBER OF PATCHES TO IMPROVE LOAD BALANCE
Info: REMOVING COM VELOCITY -0.0120205 0.179421 0.0631996
Info: Use 3D box decompostion in PME FFT.
Info: Updated CUDA force table with 4096 elements.
Info: Updated CUDA LJ table with 7 x 7 elements.
Info: Found 13 unique exclusion lists needing 20 bytes
TCL: Running for 1500000 steps
ETITLE: TS BOND ANGLE DIHED IMPRP ELECT VDW BOUNDARY MISC KINETIC TOTAL TEMP POTENTIAL TOTALAVG TEMPAVG PRESSURE GPRESSURE VOLUME PRESSAVG GPRESSAVG
ENERGY: 0 0.6159 5.3232 1.3916 0.0000 -10700.2948 1388.5780 0.0000 0.0000 1785.3749 -7519.0113 302.5565 -9304.3862 -7519.0113 302.5565 -488.4951 -396.9645 30518.4854 -488.4951 -396.9645
ENERGY: 300000 0.0301 3.1826 0.3221 0.0000 -10746.6195 1433.1128 0.0000 0.0000 1777.2129 -7532.7590 301.1733 -9309.9719 -7563.6584 299.4668 -58.4724 28.2901 30222.2260 -192.8778 -118.6419
ENERGY: 600000 0.2605 2.5200 0.1398 0.0000 -10786.5715 1474.8083 0.0000 0.0000 1799.1164 -7509.7264 304.8852 -9308.8428 -7544.7606 299.7823 353.3386 382.4710 30259.2819 -139.7209 -77.0399
ENERGY: 900000 0.6879 5.1963 1.9778 0.0000 -10731.5128 1457.7715 0.0000 0.0000 1764.8254 -7501.0540 299.0741 -9265.8794 -7549.3188 299.5592 112.4665 194.0859 30574.2445 -56.5872 5.4255
ENERGY: 1200000 0.8712 3.8543 1.9235 0.0000 -10855.3954 1483.4831 0.0000 0.0000 1723.7482 -7641.5151 292.1130 -9365.2633 -7556.5291 298.6200 320.0490 379.9652 30021.8036 -43.3822 14.3929
ENERGY: 1500000 0.0231 4.9026 1.3625 0.0000 -10869.9755 1529.1604 0.0000 0.0000 1796.3121 -7538.2147 304.4100 -9334.5269 -7554.2579 299.6109 391.9686 429.0580 30692.5547 5.0967 63.2425
TCL: Running FEP window   2: Lambda1 0.05   Lambda2 0.1    [dLambda 0.05  ]
TCL: Setting parameter firsttimestep to 0
TCL: Setting parameter alchLambda to 0.05
Info: NONBONDED TABLE R-SQUARED SPACING: 0.0625
Info: NONBONDED TABLE SIZE: 705 POINTS
TCL: Setting parameter alchLambda2 to 0.1
Info: NONBONDED TABLE R-SQUARED SPACING: 0.0625
Info: NONBONDED TABLE SIZE: 705 POINTS
TCL: Running for 1500000 steps
ETITLE: TS BOND ANGLE DIHED IMPRP ELECT VDW BOUNDARY MISC KINETIC TOTAL TEMP POTENTIAL TOTALAVG TEMPAVG PRESSURE GPRESSURE VOLUME PRESSAVG GPRESSAVG
ENERGY: 0 0.0231 4.9026 1.3625 0.0000 -10869.9759 1530.4824 0.0000 0.0000 1795.4519 -7537.7534 304.2642 -9333.2053 -7537.7534 304.2642 349.1683 433.5601 30692.5547 349.1683 433.5601
ENERGY: 300000 0.0750 4.8012 0.7867 0.0000 -10845.6377 1538.2476 0.0000 0.0000 1794.7047 -7507.0225 304.1376 -9301.7272 -7555.6957 300.8345 477.2152 543.5597 30680.9700 -28.3987 28.4123
ENERGY: 600000 0.9223 2.7938 0.7361 0.0000 -10747.3177 1432.9056 0.0000 0.0000 1778.0078 -7531.9522 301.3080 -9309.9599 -7540.3628 301.8526 -308.1208 -277.2307 31017.5176 -183.5366 -130.0326
ENERGY: 900000 0.0764 1.8068 0.2281 0.0000 -10752.0878 1403.4435 0.0000 0.0000 1753.7662 -7592.7669 297.2000 -9346.5331 -7556.8058 300.6608 -251.4915 -223.2431 29956.4980 -192.7326 -136.4655
ENERGY: 1200000 0.4842 5.4090 0.4865 0.0000 -10838.1404 1457.4537 0.0000 0.0000 1852.0257 -7522.2814 313.8514 -9374.3071 -7545.4702 302.6203 -92.8727 -10.5077 30611.2878 -118.5841 -65.8971
ENERGY: 1500000 1.3005 3.6399 0.4514 0.0000 -10793.2594 1526.2142 0.0000 0.0000 1761.8566 -7499.7969 298.5710 -9261.6535 -7535.6206 302.5657 1103.6045 1133.2049 29896.1104 -72.6084 -21.2252
TCL: Running FEP window   3: Lambda1 0.1    Lambda2 0.15000000000000002 [dLambda 0.05000000000000002]
TCL: Setting parameter firsttimestep to 0
TCL: Setting parameter alchLambda to 0.1
Info: NONBONDED TABLE R-SQUARED SPACING: 0.0625
Info: NONBONDED TABLE SIZE: 705 POINTS
TCL: Setting parameter alchLambda2 to 0.15000000000000002
Info: NONBONDED TABLE R-SQUARED SPACING: 0.0625
Info: NONBONDED TABLE SIZE: 705 POINTS
TCL: Running for 1500000 steps
ETITLE: TS BOND ANGLE DIHED IMPRP ELECT VDW BOUNDARY MISC KINETIC TOTAL TEMP POTENTIAL TOTALAVG TEMPAVG PRESSURE GPRESSURE VOLUME PRESSAVG GPRESSAVG
ENERGY: 0 1.3004 3.6399 0.4514 0.0000 -10793.2590 1528.3103 0.0000 0.0000 1761.0247 -7498.5322 298.4300 -9259.5569 -7498.5322 298.4300 1063.5733 1138.6112 29896.1104 1063.5733 1138.6112
ENERGY: 300000 0.5128 2.9489 0.9264 0.0000 -10671.9641 1389.9875 0.0000 0.0000 1760.4514 -7517.1371 298.3329 -9277.5885 -7528.0217 301.0957 -459.7294 -400.1985 30594.1280 139.5984 212.2728
ENERGY: 600000 0.1561 2.3649 1.0376 0.0000 -10854.0156 1466.1882 0.0000 0.0000 1797.3248 -7586.9441 304.5816 -9384.2688 -7548.2116 302.4302 -342.6161 -247.5512 30615.7605 44.0179 126.2220
ENERGY: 900000 1.2133 4.8178 0.6251 0.0000 -10713.7191 1483.5554 0.0000 0.0000 1765.5991 -7457.9083 299.2052 -9223.5075 -7538.8955 301.2785 779.0141 897.1665 30031.3418 15.4849 102.7235
ENERGY: 1200000 0.6584 5.0206 0.3922 0.0000 -10658.9345 1354.5761 0.0000 0.0000 1771.7932 -7526.4940 300.2549 -9298.2873 -7529.4796 300.7286 -602.4835 -567.1476 30531.7669 -44.2530 34.8324
ENERGY: 1500000 0.1230 7.6505 0.7818 0.0000 -10744.5702 1448.4427 0.0000 0.0000 1820.0413 -7467.5308 308.4312 -9287.5722 -7537.3742 300.1767 50.8118 93.6432 30549.1580 -116.1541 -42.0948
TCL: Running FEP window   4: Lambda1 0.15000000000000002 Lambda2 0.2    [dLambda 0.04999999999999999]
TCL: Setting parameter firsttimestep to 0
TCL: Setting parameter alchLambda to 0.15000000000000002
Info: NONBONDED TABLE R-SQUARED SPACING: 0.0625
Info: NONBONDED TABLE SIZE: 705 POINTS
TCL: Setting parameter alchLambda2 to 0.2
Info: NONBONDED TABLE R-SQUARED SPACING: 0.0625
Info: NONBONDED TABLE SIZE: 705 POINTS
TCL: Running for 1500000 steps
ETITLE: TS BOND ANGLE DIHED IMPRP ELECT VDW BOUNDARY MISC KINETIC TOTAL TEMP POTENTIAL TOTALAVG TEMPAVG PRESSURE GPRESSURE VOLUME PRESSAVG GPRESSAVG
ENERGY: 0 0.1230 7.6505 0.7818 0.0000 -10744.5703 1449.1772 0.0000 0.0000 1819.1508 -7467.6869 308.2803 -9286.8377 -7467.6869 308.2803 0.6299 100.1831 30549.1580 0.6299 100.1831
ENERGY: 300000 0.3101 4.7491 2.6021 0.0000 -10858.8998 1497.7169 0.0000 0.0000 1774.4656 -7579.0560 300.7078 -9353.5216 -7536.3612 302.7131 76.7800 156.1251 30663.9462 32.2651 110.7006
ENERGY: 600000 0.7310 4.8515 0.6416 0.0000 -10806.8236 1481.6660 0.0000 0.0000 1840.6475 -7478.2861 311.9232 -9318.9336 -7514.9657 304.5758 381.7801 374.0487 30227.7318 99.0443 155.4517
ENERGY: 900000 0.9655 3.4785 0.2824 0.0000 -10726.4248 1399.2933 0.0000 0.0000 1778.0697 -7544.3355 301.3185 -9322.4052 -7530.1572 302.4887 -382.3060 -322.3444 30318.9436 -31.6542 27.3214
ENERGY: 1200000 0.0331 3.4947 2.0440 0.0000 -10752.4057 1453.8816 0.0000 0.0000 1804.9540 -7487.9984 305.8744 -9292.9523 -7522.2712 302.4234 195.5649 300.3773 30155.7536 -42.5004 21.1199
ENERGY: 1500000 2.2281 4.5905 0.7947 0.0000 -10592.1886 1312.7485 0.0000 0.0000 1745.9733 -7525.8534 295.8794 -9271.8267 -7534.7771 300.8551 -904.0738 -883.4344 30414.3064 -98.2405 -33.0691
TCL: Running FEP window   5: Lambda1 0.2    Lambda2 0.25   [dLambda 0.04999999999999999]
TCL: Setting parameter firsttimestep to 0
TCL: Setting parameter alchLambda to 0.2
Info: NONBONDED TABLE R-SQUARED SPACING: 0.0625
Info: NONBONDED TABLE SIZE: 705 POINTS
TCL: Setting parameter alchLambda2 to 0.25
Info: NONBONDED TABLE R-SQUARED SPACING: 0.0625
Info: NONBONDED TABLE SIZE: 705 POINTS
TCL: Running for 1500000 steps
ETITLE: TS BOND ANGLE DIHED IMPRP ELECT VDW BOUNDARY MISC KINETIC TOTAL TEMP POTENTIAL TOTALAVG TEMPAVG PRESSURE GPRESSURE VOLUME PRESSAVG GPRESSAVG
ENERGY: 0 2.2281 4.5905 0.7947 0.0000 -10592.1892 1312.7978 0.0000 0.0000 1745.1007 -7526.6774 295.7315 -9271.7781 -7526.6774 295.7315 -954.3050 -879.8761 30414.3064 -954.3050 -879.8761
ENERGY: 300000 1.0682 3.2394 0.1261 0.0000 -10553.9338 1329.2218 0.0000 0.0000 1728.0736 -7492.2047 292.8460 -9220.2783 -7537.1056 296.4968 -745.8835 -669.1271 30542.2926 -521.6719 -450.6733
ENERGY: 600000 0.4417 3.0942 0.3364 0.0000 -10809.1976 1506.4810 0.0000 0.0000 1791.3904 -7507.4539 303.5759 -9298.8443 -7521.8155 299.5505 360.2965 375.2858 30699.8637 -293.0174 -238.0495
ENERGY: 900000 1.1481 5.1615 0.5155 0.0000 -10911.5668 1504.7508 0.0000 0.0000 1764.5278 -7635.4631 299.0237 -9399.9909 -7528.4124 299.0760 -50.4973 -1.6200 30775.9770 -287.5830 -233.0601
ENERGY: 1200000 0.6631 6.6541 0.4553 0.0000 -10668.3633 1387.1912 0.0000 0.0000 1761.9973 -7511.4022 298.5948 -9273.3995 -7517.6621 299.9174 -342.9970 -346.3979 30755.5144 -224.8224 -177.9720
ENERGY: 1500000 1.0071 2.6391 0.5457 0.0000 -10849.8064 1517.8900 0.0000 0.0000 1736.9424 -7590.7820 294.3489 -9327.7244 -7522.9284 299.0296 499.8628 588.9075 30284.9041 -173.3596 -117.9304
TCL: Running FEP window   6: Lambda1 0.25   Lambda2 0.3    [dLambda 0.04999999999999999]
TCL: Setting parameter firsttimestep to 0
TCL: Setting parameter alchLambda to 0.25
Info: NONBONDED TABLE R-SQUARED SPACING: 0.0625
Info: NONBONDED TABLE SIZE: 705 POINTS
TCL: Setting parameter alchLambda2 to 0.3
Info: NONBONDED TABLE R-SQUARED SPACING: 0.0625
Info: NONBONDED TABLE SIZE: 705 POINTS
TCL: Running for 1500000 steps
ETITLE: TS BOND ANGLE DIHED IMPRP ELECT VDW BOUNDARY MISC KINETIC TOTAL TEMP POTENTIAL TOTALAVG TEMPAVG PRESSURE GPRESSURE VOLUME PRESSAVG GPRESSAVG
ENERGY: 0 1.0071 2.6391 0.5457 0.0000 -10849.8069 1517.7940 0.0000 0.0000 1736.0128 -7591.8081 294.1914 -9327.8210 -7591.8081 294.1914 514.7974 585.7629 30284.9041 514.7974 585.7629
ENERGY: 300000 0.7581 4.8062 1.0005 0.0000 -10651.9871 1391.3340 0.0000 0.0000 1765.7646 -7488.3236 299.2333 -9254.0883 -7525.2024 299.5306 -8.1353 41.9028 30204.3221 67.4484 140.3203
ENERGY: 600000 0.3752 1.6975 1.5793 0.0000 -10726.9419 1398.8631 0.0000 0.0000 1773.4571 -7550.9696 300.5369 -9324.4267 -7526.8182 301.1204 -537.2743 -421.3273 30599.9133 -31.7206 38.0574
ENERGY: 900000 0.1635 1.4177 0.5707 0.0000 -10778.9654 1457.2656 0.0000 0.0000 1792.0257 -7527.5222 303.6836 -9319.5478 -7531.5923 301.1932 -42.5941 12.7577 30448.1847 9.9168 65.6946
ENERGY: 1200000 0.1445 1.6056 0.4396 0.0000 -10824.3946 1487.3019 0.0000 0.0000 1766.1456 -7568.7574 299.2978 -9334.9030 -7537.7367 302.1571 428.5681 477.6025 30049.9150 4.3819 64.4400
ENERGY: 1500000 0.0883 4.7476 1.4237 0.0000 -10901.0988 1522.7358 0.0000 0.0000 1785.5200 -7586.5834 302.5811 -9372.1034 -7547.8269 302.5045 282.5544 267.0475 30710.3547 33.3807 91.9941
TCL: Running FEP window   7: Lambda1 0.3    Lambda2 0.35   [dLambda 0.04999999999999999]
TCL: Setting parameter firsttimestep to 0
TCL: Setting parameter alchLambda to 0.3
Info: NONBONDED TABLE R-SQUARED SPACING: 0.0625
Info: NONBONDED TABLE SIZE: 705 POINTS
TCL: Setting parameter alchLambda2 to 0.35
Info: NONBONDED TABLE R-SQUARED SPACING: 0.0625
Info: NONBONDED TABLE SIZE: 705 POINTS
TCL: Running for 1500000 steps
ETITLE: TS BOND ANGLE DIHED IMPRP ELECT VDW BOUNDARY MISC KINETIC TOTAL TEMP POTENTIAL TOTALAVG TEMPAVG PRESSURE GPRESSURE VOLUME PRESSAVG GPRESSAVG
ENERGY: 0 0.0883 4.7476 1.4237 0.0000 -10901.0988 1522.4545 0.0000 0.0000 1784.6110 -7587.7739 302.4270 -9372.3848 -7587.7739 302.4270 192.9056 267.4901 30710.3547 192.9056 267.4901
ENERGY: 300000 0.1206 3.2137 0.0410 0.0000 -10735.1350 1429.4689 0.0000 0.0000 1765.6148 -7536.6759 299.2079 -9302.2907 -7549.6539 298.6266 -257.3402 -196.8862 30580.9107 183.4974 251.3937
ENERGY: 600000 0.6535 5.8714 1.4042 0.0000 -10807.9658 1449.6933 0.0000 0.0000 1776.3744 -7573.9691 301.0312 -9350.3435 -7524.7806 301.5737 -92.8438 -22.3295 30417.1563 27.4595 90.8454
ENERGY: 900000 0.9344 7.3667 0.1826 0.0000 -10727.0849 1431.4273 0.0000 0.0000 1775.5442 -7511.6297 300.8906 -9287.1739 -7528.2184 301.0812 -282.8064 -195.4366 30733.2922 -62.4423 -12.3743
ENERGY: 1200000 0.4199 5.8035 1.1429 0.0000 -10935.1981 1549.4471 0.0000 0.0000 1765.0442 -7613.3406 299.1112 -9378.3848 -7539.5746 300.9539 888.9695 904.9878 29915.2910 17.0340 68.0385
ENERGY: 1500000 0.3866 4.4373 2.0282 0.0000 -10714.4440 1385.2208 0.0000 0.0000 1765.3238 -7557.0473 299.1586 -9322.3711 -7538.3318 300.7713 -296.6523 -242.2299 30197.0867 -36.8631 20.3495
TCL: Running FEP window   8: Lambda1 0.35   Lambda2 0.39999999999999997 [dLambda 0.04999999999999999]
TCL: Setting parameter firsttimestep to 0
TCL: Setting parameter alchLambda to 0.35
Info: NONBONDED TABLE R-SQUARED SPACING: 0.0625
Info: NONBONDED TABLE SIZE: 705 POINTS
TCL: Setting parameter alchLambda2 to 0.39999999999999997
Info: NONBONDED TABLE R-SQUARED SPACING: 0.0625
Info: NONBONDED TABLE SIZE: 705 POINTS
TCL: Running for 1500000 steps
ETITLE: TS BOND ANGLE DIHED IMPRP ELECT VDW BOUNDARY MISC KINETIC TOTAL TEMP POTENTIAL TOTALAVG TEMPAVG PRESSURE GPRESSURE VOLUME PRESSAVG GPRESSAVG
ENERGY: 0 0.3866 4.4373 2.0282 0.0000 -10714.4440 1385.5589 0.0000 0.0000 1764.4503 -7557.5827 299.0105 -9322.0329 -7557.5827 299.0105 -329.4672 -235.8003 30197.0867 -329.4672 -235.8003
ENERGY: 300000 1.3973 4.4782 0.7777 0.0000 -10843.2245 1485.6416 0.0000 0.0000 1765.5733 -7585.3564 299.2008 -9350.9296 -7586.1514 298.5500 132.7923 146.5073 30323.4726 -417.5062 -374.5305
ENERGY: 600000 0.1048 3.5010 0.3707 0.0000 -10836.4123 1448.6616 0.0000 0.0000 1779.8106 -7603.9637 301.6135 -9383.7742 -7593.2165 299.6955 -294.4231 -179.3837 30565.6573 -376.3591 -322.7067
ENERGY: 900000 1.3831 4.0125 0.2597 0.0000 -10748.5635 1419.6927 0.0000 0.0000 1769.1048 -7554.1107 299.7993 -9323.2155 -7582.7268 299.4664 -231.4269 -195.6552 30566.6891 -362.1644 -314.2754
ENERGY: 1200000 0.0077 2.7268 0.2059 0.0000 -10804.5753 1456.9772 0.0000 0.0000 1764.3570 -7580.3007 298.9947 -9344.6577 -7578.9730 298.7877 302.8599 355.1212 29952.0755 -251.9699 -200.6473
ENERGY: 1500000 0.1983 5.5714 1.8379 0.0000 -10676.5342 1436.0996 0.0000 0.0000 1752.4329 -7480.3940 296.9740 -9232.8269 -7570.9901 298.4857 -134.4187 -41.6393 30865.2486 -198.3638 -148.9393
TCL: Running FEP window   9: Lambda1 0.39999999999999997 Lambda2 0.44999999999999996 [dLambda 0.04999999999999999]
TCL: Setting parameter firsttimestep to 0
TCL: Setting parameter alchLambda to 0.39999999999999997
Info: NONBONDED TABLE R-SQUARED SPACING: 0.0625
Info: NONBONDED TABLE SIZE: 705 POINTS
TCL: Setting parameter alchLambda2 to 0.44999999999999996
Info: NONBONDED TABLE R-SQUARED SPACING: 0.0625
Info: NONBONDED TABLE SIZE: 705 POINTS
TCL: Running for 1500000 steps
ETITLE: TS BOND ANGLE DIHED IMPRP ELECT VDW BOUNDARY MISC KINETIC TOTAL TEMP POTENTIAL TOTALAVG TEMPAVG PRESSURE GPRESSURE VOLUME PRESSAVG GPRESSAVG
ENERGY: 0 0.1984 5.5714 1.8379 0.0000 -10676.5346 1436.2553 0.0000 0.0000 1751.5808 -7481.0908 296.8296 -9232.6716 -7481.0908 296.8296 -103.6062 -37.3219 30865.2486 -103.6062 -37.3219
ENERGY: 300000 0.4436 5.0023 0.1534 0.0000 -10828.8521 1512.0842 0.0000 0.0000 1746.8678 -7564.3009 296.0309 -9311.1687 -7550.6455 299.5630 324.4487 431.1985 30361.4332 -148.5101 -52.8572
ENERGY: 600000 0.7230 2.6800 1.1116 0.0000 -10846.2451 1454.0751 0.0000 0.0000 1806.3511 -7581.3042 306.1112 -9387.6553 -7543.8924 300.7813 -356.8554 -331.0360 30819.9028 2.6274 75.5235
ENERGY: 900000 0.2590 4.3556 0.4043 0.0000 -10652.5882 1421.6052 0.0000 0.0000 1734.9471 -7491.0169 294.0108 -9225.9640 -7546.0643 299.4712 -202.1545 -147.3848 30957.6276 -110.5532 -38.5097
ENERGY: 1200000 0.8606 2.8961 1.4966 0.0000 -10696.7986 1394.3066 0.0000 0.0000 1762.5117 -7534.7271 298.6820 -9297.2388 -7539.2756 300.3420 -583.5981 -486.5849 30946.8240 -170.9361 -96.3305
ENERGY: 1500000 0.2622 2.9742 0.7040 0.0000 -10776.3901 1435.1261 0.0000 0.0000 1816.9735 -7520.3500 307.9113 -9337.3235 -7533.2855 300.3882 -317.8254 -231.1487 30850.2705 -73.6674 -8.8993
TCL: Running FEP window  10: Lambda1 0.44999999999999996 Lambda2 0.49999999999999994 [dLambda 0.04999999999999999]
TCL: Setting parameter firsttimestep to 0
TCL: Setting parameter alchLambda to 0.44999999999999996
Info: NONBONDED TABLE R-SQUARED SPACING: 0.0625
Info: NONBONDED TABLE SIZE: 705 POINTS
TCL: Setting parameter alchLambda2 to 0.49999999999999994
Info: NONBONDED TABLE R-SQUARED SPACING: 0.0625
Info: NONBONDED TABLE SIZE: 705 POINTS
TCL: Running for 1500000 steps
ETITLE: TS BOND ANGLE DIHED IMPRP ELECT VDW BOUNDARY MISC KINETIC TOTAL TEMP POTENTIAL TOTALAVG TEMPAVG PRESSURE GPRESSURE VOLUME PRESSAVG GPRESSAVG
ENERGY: 0 0.2622 2.9742 0.7040 0.0000 -10776.3908 1434.7999 0.0000 0.0000 1816.0803 -7521.5700 307.7600 -9337.6503 -7521.5700 307.7600 -312.0844 -228.6839 30850.2705 -312.0844 -228.6839
ENERGY: 300000 0.8835 6.5505 1.0548 0.0000 -10720.5507 1426.6330 0.0000 0.0000 1777.3132 -7508.1156 301.1903 -9285.4289 -7513.2828 306.8145 -285.7548 -239.0781 30781.1256 232.5577 303.9701
ENERGY: 600000 1.4119 7.5793 0.6738 0.0000 -10823.5619 1496.0641 0.0000 0.0000 1788.2951 -7529.5377 303.0514 -9317.8328 -7502.7029 304.7541 256.7369 340.4763 30656.6581 345.8814 417.5374
ENERGY: 900000 0.0646 2.9137 0.4965 0.0000 -10732.1004 1457.5692 0.0000 0.0000 1814.7045 -7456.3518 307.5268 -9271.0563 -7515.1917 303.4224 333.5597 401.2539 30406.2148 428.0185 486.9464
ENERGY: 1200000 0.0325 2.8915 3.0193 0.0000 -10734.8217 1412.7521 0.0000 0.0000 1806.2922 -7509.8341 306.1012 -9316.1263 -7530.5019 302.8952 -50.9096 -36.9014 30260.6626 208.2936 275.6194
ENERGY: 1500000 0.2696 2.4597 1.3165 0.0000 -10797.2234 1510.5814 0.0000 0.0000 1715.3371 -7567.2591 290.6876 -9282.5962 -7525.7663 301.7171 545.1609 584.0706 30440.1981 209.1443 274.9770
TCL: Running FEP window  11: Lambda1 0.49999999999999994 Lambda2 0.5499999999999999 [dLambda 0.04999999999999999]
TCL: Setting parameter firsttimestep to 0
TCL: Setting parameter alchLambda to 0.49999999999999994
Info: NONBONDED TABLE R-SQUARED SPACING: 0.0625
Info: NONBONDED TABLE SIZE: 705 POINTS
TCL: Setting parameter alchLambda2 to 0.5499999999999999
Info: NONBONDED TABLE R-SQUARED SPACING: 0.0625
Info: NONBONDED TABLE SIZE: 705 POINTS
TCL: Running for 1500000 steps
ETITLE: TS BOND ANGLE DIHED IMPRP ELECT VDW BOUNDARY MISC KINETIC TOTAL TEMP POTENTIAL TOTALAVG TEMPAVG PRESSURE GPRESSURE VOLUME PRESSAVG GPRESSAVG
ENERGY: 0 0.2696 2.4597 1.3165 0.0000 -10797.2239 1510.5803 0.0000 0.0000 1714.4779 -7568.1198 290.5420 -9282.5977 -7568.1198 290.5420 510.3704 587.5983 30440.1981 510.3704 587.5983
ENERGY: 300000 2.2856 3.3893 0.2152 0.0000 -10597.1465 1374.7747 0.0000 0.0000 1786.8274 -7429.6543 302.8026 -9216.4816 -7529.3032 298.5893 -521.1642 -472.6977 30938.6296 -169.8140 -106.7294
ENERGY: 600000 0.0264 3.7821 0.4859 0.0000 -10862.4427 1496.4430 0.0000 0.0000 1751.3305 -7610.3747 296.7872 -9361.7052 -7536.9344 299.6244 100.5607 169.6054 30476.8069 -201.4838 -145.0343
ENERGY: 900000 0.0097 1.4114 0.1456 0.0000 -10719.7621 1410.1811 0.0000 0.0000 1745.3081 -7562.7062 295.7666 -9308.0143 -7529.1974 300.3898 -334.5925 -282.8750 30611.2381 -228.1504 -176.0944
ENERGY: 1200000 0.0096 4.6179 0.2232 0.0000 -10703.8651 1417.6676 0.0000 0.0000 1748.6317 -7532.7151 296.3299 -9281.3468 -7527.4419 300.0007 -73.2620 -7.9746 30173.9681 -210.2149 -152.7286
ENERGY: 1500000 0.2388 10.1546 1.7032 0.0000 -10590.6641 1358.5768 0.0000 0.0000 1789.0225 -7430.9683 303.1746 -9219.9908 -7521.9337 300.2690 -703.7260 -614.5315 31212.8926 -286.0920 -227.1185
TCL: Running FEP window  12: Lambda1 0.5499999999999999 Lambda2 0.6    [dLambda 0.050000000000000044]
TCL: Setting parameter firsttimestep to 0
TCL: Setting parameter alchLambda to 0.5499999999999999
Info: NONBONDED TABLE R-SQUARED SPACING: 0.0625
Info: NONBONDED TABLE SIZE: 705 POINTS
TCL: Setting parameter alchLambda2 to 0.6
Info: NONBONDED TABLE R-SQUARED SPACING: 0.0625
Info: NONBONDED TABLE SIZE: 705 POINTS
TCL: Running for 1500000 steps
ETITLE: TS BOND ANGLE DIHED IMPRP ELECT VDW BOUNDARY MISC KINETIC TOTAL TEMP POTENTIAL TOTALAVG TEMPAVG PRESSURE GPRESSURE VOLUME PRESSAVG GPRESSAVG
ENERGY: 0 0.2388 10.1545 1.7032 0.0000 -10590.3996 1358.8472 0.0000 0.0000 1788.1126 -7431.3433 303.0204 -9219.4560 -7431.3433 303.0204 -693.2184 -605.5954 31212.8926 -693.2184 -605.5954
ENERGY: 300000 0.0601 2.8324 0.1944 0.0000 -10862.3867 1494.8004 0.0000 0.0000 1798.6123 -7565.8872 304.7998 -9364.4995 -7512.7218 299.9780 518.0963 527.2619 30053.2900 -79.6536 -17.7324
ENERGY: 600000 0.4056 3.1947 0.8247 0.0000 -10608.9747 1362.5964 0.0000 0.0000 1786.8358 -7455.1175 302.8041 -9241.9533 -7506.7303 300.6180 -583.5041 -507.3175 30966.9458 -174.8197 -113.1397
ENERGY: 900000 0.5224 2.2004 0.5337 0.0000 -10701.8488 1394.9263 0.0000 0.0000 1731.8435 -7571.8224 293.4849 -9303.6659 -7519.3290 300.0406 -407.0728 -349.1176 30480.6851 -205.1176 -139.3338
ENERGY: 1200000 0.7324 4.5418 0.9161 0.0000 -10752.6215 1502.9167 0.0000 0.0000 1741.5008 -7502.0137 295.1214 -9243.5145 -7520.0960 300.3285 545.9065 587.5320 30710.1990 -77.6158 -9.8498
ENERGY: 1500000 3.0893 7.9874 0.2004 0.0000 -10763.0424 1404.8105 0.0000 0.0000 1729.8213 -7617.1334 293.1422 -9346.9548 -7538.9621 299.4988 -538.5598 -493.3140 30775.2155 -137.9835 -74.6087
TCL: Running FEP window  13: Lambda1 0.6    Lambda2 0.65   [dLambda 0.050000000000000044]
TCL: Setting parameter firsttimestep to 0
TCL: Setting parameter alchLambda to 0.6
Info: NONBONDED TABLE R-SQUARED SPACING: 0.0625
Info: NONBONDED TABLE SIZE: 705 POINTS
TCL: Setting parameter alchLambda2 to 0.65
Info: NONBONDED TABLE R-SQUARED SPACING: 0.0625
Info: NONBONDED TABLE SIZE: 705 POINTS
TCL: Running for 1500000 steps
ETITLE: TS BOND ANGLE DIHED IMPRP ELECT VDW BOUNDARY MISC KINETIC TOTAL TEMP POTENTIAL TOTALAVG TEMPAVG PRESSURE GPRESSURE VOLUME PRESSAVG GPRESSAVG
ENERGY: 0 3.0893 7.9874 0.2004 0.0000 -10763.4487 1405.2279 0.0000 0.0000 1728.9723 -7617.9714 292.9983 -9346.9437 -7617.9714 292.9983 -567.0177 -487.0713 30775.2155 -567.0177 -487.0713
ENERGY: 300000 0.8431 2.4240 1.3910 0.0000 -10788.4608 1456.7417 0.0000 0.0000 1771.1614 -7555.8996 300.1478 -9327.0610 -7586.1220 300.3424 -20.5501 63.2778 30583.0320 -273.5172 -215.3177
ENERGY: 600000 1.4806 3.4638 0.2053 0.0000 -10790.0330 1517.2137 0.0000 0.0000 1831.6161 -7436.0535 310.3927 -9267.6696 -7549.3617 301.7217 905.2215 936.6867 30429.9627 41.9828 78.0889
ENERGY: 900000 0.0706 3.9875 0.1957 0.0000 -10924.9144 1579.3968 0.0000 0.0000 1726.6707 -7614.5930 292.6083 -9341.2638 -7556.6978 301.5551 835.4125 919.7925 30404.1735 139.2406 180.0069
ENERGY: 1200000 0.5021 3.9123 0.1487 0.0000 -10721.5510 1393.0355 0.0000 0.0000 1712.2219 -7611.7304 290.1597 -9323.9523 -7561.6701 300.5943 -354.7295 -175.6758 30184.7047 53.6012 103.7198
ENERGY: 1500000 0.3443 4.2934 1.4353 0.0000 -10659.2401 1355.4624 0.0000 0.0000 1789.6798 -7508.0249 303.2860 -9297.7047 -7558.0727 300.3552 -931.7416 -828.4114 30866.9789 -55.4602 2.5958
TCL: Running FEP window  14: Lambda1 0.65   Lambda2 0.7000000000000001 [dLambda 0.050000000000000044]
TCL: Setting parameter firsttimestep to 0
TCL: Setting parameter alchLambda to 0.65
Info: NONBONDED TABLE R-SQUARED SPACING: 0.0625
Info: NONBONDED TABLE SIZE: 705 POINTS
TCL: Setting parameter alchLambda2 to 0.7000000000000001
Info: NONBONDED TABLE R-SQUARED SPACING: 0.0625
Info: NONBONDED TABLE SIZE: 705 POINTS
TCL: Running for 1500000 steps
ETITLE: TS BOND ANGLE DIHED IMPRP ELECT VDW BOUNDARY MISC KINETIC TOTAL TEMP POTENTIAL TOTALAVG TEMPAVG PRESSURE GPRESSURE VOLUME PRESSAVG GPRESSAVG
ENERGY: 0 0.3443 4.2934 1.4353 0.0000 -10659.3209 1355.4194 0.0000 0.0000 1788.8264 -7509.0021 303.1414 -9297.8286 -7509.0021 303.1414 -911.0649 -824.3984 30866.9789 -911.0649 -824.3984
ENERGY: 300000 0.1402 3.7509 0.9686 0.0000 -10806.7011 1494.0850 0.0000 0.0000 1817.9567 -7489.7997 308.0779 -9307.7564 -7551.0683 305.2608 503.1461 576.1633 30191.2117 -10.0853 61.1888
ENERGY: 600000 0.5807 4.3317 1.3522 0.0000 -10872.0093 1506.7716 0.0000 0.0000 1806.3344 -7552.6387 306.1084 -9358.9731 -7556.5083 304.2185 392.8211 466.7583 30135.0253 63.4368 137.0812
ENERGY: 900000 0.3685 3.4867 0.3063 0.0000 -10819.3152 1430.4133 0.0000 0.0000 1776.3362 -7608.4042 301.0248 -9384.7404 -7564.7229 302.7790 -398.1056 -357.0858 30586.1926 -27.6428 34.0261
ENERGY: 1200000 0.0380 1.8355 0.1497 0.0000 -10753.0355 1436.3273 0.0000 0.0000 1770.5270 -7544.1581 300.0403 -9314.6851 -7555.2091 302.5877 33.0998 110.5009 30278.2883 -17.0643 47.2702
ENERGY: 1500000 0.7672 2.6134 1.5195 0.0000 -10682.8751 1347.3329 0.0000 0.0000 1742.9110 -7587.7311 295.3604 -9330.6421 -7548.4721 302.1584 -850.2303 -762.0378 30494.5301 39.1893 104.9457
TCL: Running FEP window  15: Lambda1 0.7000000000000001 Lambda2 0.7500000000000001 [dLambda 0.050000000000000044]
TCL: Setting parameter firsttimestep to 0
TCL: Setting parameter alchLambda to 0.7000000000000001
Info: NONBONDED TABLE R-SQUARED SPACING: 0.0625
Info: NONBONDED TABLE SIZE: 705 POINTS
TCL: Setting parameter alchLambda2 to 0.7500000000000001
Info: NONBONDED TABLE R-SQUARED SPACING: 0.0625
Info: NONBONDED TABLE SIZE: 705 POINTS
TCL: Running for 1500000 steps
ETITLE: TS BOND ANGLE DIHED IMPRP ELECT VDW BOUNDARY MISC KINETIC TOTAL TEMP POTENTIAL TOTALAVG TEMPAVG PRESSURE GPRESSURE VOLUME PRESSAVG GPRESSAVG
ENERGY: 0 0.7672 2.6134 1.5195 0.0000 -10682.9955 1347.6831 0.0000 0.0000 1742.0443 -7588.3680 295.2135 -9330.4123 -7588.3680 295.2135 -835.3699 -751.5599 30494.5301 -835.3699 -751.5599
ENERGY: 300000 4.5995 4.5340 0.6134 0.0000 -10786.2585 1431.9725 0.0000 0.0000 1706.4801 -7638.0589 289.1867 -9344.5390 -7582.9988 294.7786 -282.5824 -241.5685 30367.1553 -237.3183 -157.7149
ENERGY: 600000 0.1531 6.0272 0.3967 0.0000 -10676.4119 1391.0899 0.0000 0.0000 1789.4706 -7489.2744 303.2506 -9278.7451 -7566.6310 298.9271 -469.5146 -359.2773 30621.5901 -152.1172 -61.3039
ENERGY: 900000 0.1977 2.3803 0.4438 0.0000 -10875.9621 1480.2564 0.0000 0.0000 1797.7102 -7594.9737 304.6469 -9392.6839 -7567.9837 300.7845 15.9993 82.4298 30410.3429 -134.6783 -66.2401
ENERGY: 1200000 0.0201 3.1328 0.0479 0.0000 -10902.8272 1584.0269 0.0000 0.0000 1784.2380 -7531.3615 302.3638 -9315.5995 -7563.6654 301.0855 820.6733 857.1247 30961.6319 -116.2821 -49.8062
ENERGY: 1500000 0.0485 5.2792 1.2755 0.0000 -10775.9150 1467.4504 0.0000 0.0000 1768.1254 -7533.7360 299.6333 -9301.8614 -7564.4654 300.3151 135.1732 208.0767 30428.9161 -28.2326 39.8582
TCL: Running FEP window  16: Lambda1 0.7500000000000001 Lambda2 0.8000000000000002 [dLambda 0.050000000000000044]
TCL: Setting parameter firsttimestep to 0
TCL: Setting parameter alchLambda to 0.7500000000000001
Info: NONBONDED TABLE R-SQUARED SPACING: 0.0625
Info: NONBONDED TABLE SIZE: 705 POINTS
TCL: Setting parameter alchLambda2 to 0.8000000000000002
Info: NONBONDED TABLE R-SQUARED SPACING: 0.0625
Info: NONBONDED TABLE SIZE: 705 POINTS
TCL: Running for 1500000 steps
ETITLE: TS BOND ANGLE DIHED IMPRP ELECT VDW BOUNDARY MISC KINETIC TOTAL TEMP POTENTIAL TOTALAVG TEMPAVG PRESSURE GPRESSURE VOLUME PRESSAVG GPRESSAVG
ENERGY: 0 0.0485 5.2792 1.2755 0.0000 -10776.5591 1467.6055 0.0000 0.0000 1767.2711 -7535.0792 299.4886 -9302.3504 -7535.0792 299.4886 126.5468 213.1601 30428.9161 126.5468 213.1601
ENERGY: 300000 0.2651 6.6072 2.3583 0.0000 -10736.8900 1437.9832 0.0000 0.0000 1692.4361 -7597.2402 286.8067 -9289.6762 -7519.0028 298.6055 -258.4779 -196.5302 31002.0063 -25.5608 25.4212
ENERGY: 600000 0.1353 3.3588 1.5749 0.0000 -10750.2616 1424.3618 0.0000 0.0000 1813.4358 -7507.3950 307.3118 -9320.8308 -7543.2494 298.6604 -129.8285 -49.7249 30511.3039 -159.5826 -101.2298
ENERGY: 900000 0.1343 5.2141 0.1907 0.0000 -10737.9070 1379.7289 0.0000 0.0000 1780.7552 -7571.8839 301.7736 -9352.6391 -7552.3676 299.1942 -691.4263 -612.7024 30608.9546 -327.2210 -258.4548
ENERGY: 1200000 0.4314 5.4104 0.5654 0.0000 -10943.4331 1584.4031 0.0000 0.0000 1787.6806 -7564.9421 302.9472 -9352.6227 -7559.5414 298.7935 962.9838 1049.4170 30381.5243 -150.3904 -82.6079
ENERGY: 1500000 0.2123 6.2947 0.7080 0.0000 -10745.9097 1393.0037 0.0000 0.0000 1740.7217 -7604.9692 294.9894 -9345.6909 -7563.1537 299.5637 -369.1475 -369.6981 30333.9897 -161.8135 -97.6321
TCL: Running FEP window  17: Lambda1 0.8000000000000002 Lambda2 0.8500000000000002 [dLambda 0.050000000000000044]
TCL: Setting parameter firsttimestep to 0
TCL: Setting parameter alchLambda to 0.8000000000000002
Info: NONBONDED TABLE R-SQUARED SPACING: 0.0625
Info: NONBONDED TABLE SIZE: 705 POINTS
TCL: Setting parameter alchLambda2 to 0.8500000000000002
Info: NONBONDED TABLE R-SQUARED SPACING: 0.0625
Info: NONBONDED TABLE SIZE: 705 POINTS
TCL: Running for 1500000 steps
ETITLE: TS BOND ANGLE DIHED IMPRP ELECT VDW BOUNDARY MISC KINETIC TOTAL TEMP POTENTIAL TOTALAVG TEMPAVG PRESSURE GPRESSURE VOLUME PRESSAVG GPRESSAVG
ENERGY: 0 0.2123 6.2947 0.7080 0.0000 -10747.6886 1394.1651 0.0000 0.0000 1739.7931 -7606.5154 294.8320 -9346.3086 -7606.5154 294.8320 -446.6181 -362.2383 30333.9897 -446.6181 -362.2383
ENERGY: 300000 0.2356 3.2864 1.2656 0.0000 -10658.6467 1346.4452 0.0000 0.0000 1829.6065 -7477.8073 310.0522 -9307.4139 -7562.4047 298.9597 -754.6439 -683.6939 30522.0538 -341.3110 -272.4209
ENERGY: 600000 0.8462 4.5715 0.8278 0.0000 -10795.2552 1518.5170 0.0000 0.0000 1736.4839 -7534.0088 294.2712 -9270.4927 -7572.2493 296.8628 554.2103 629.7869 30710.4864 -142.6675 -76.4440
ENERGY: 900000 1.2286 2.3297 0.1228 0.0000 -10681.9219 1362.7550 0.0000 0.0000 1794.3638 -7521.1220 304.0798 -9315.4858 -7558.7029 299.5421 -663.6281 -595.4922 30593.1397 -216.9572 -149.6550
ENERGY: 1200000 0.1517 6.2986 0.5346 0.0000 -10837.2447 1428.9649 0.0000 0.0000 1707.4700 -7693.8249 289.3544 -9401.2949 -7579.7011 298.8736 -398.1528 -275.4441 30424.8305 -299.4313 -231.2801
ENERGY: 1500000 0.4668 5.8316 0.8343 0.0000 -10882.3603 1570.1898 0.0000 0.0000 1783.1699 -7521.8679 302.1828 -9305.0378 -7570.6224 298.7899 924.1846 893.4714 30788.8665 -206.7890 -147.8011
TCL: Running FEP window  18: Lambda1 0.8500000000000002 Lambda2 0.9000000000000002 [dLambda 0.050000000000000044]
TCL: Setting parameter firsttimestep to 0
TCL: Setting parameter alchLambda to 0.8500000000000002
Info: NONBONDED TABLE R-SQUARED SPACING: 0.0625
Info: NONBONDED TABLE SIZE: 705 POINTS
TCL: Setting parameter alchLambda2 to 0.9000000000000002
Info: NONBONDED TABLE R-SQUARED SPACING: 0.0625
Info: NONBONDED TABLE SIZE: 705 POINTS
TCL: Running for 1500000 steps
ETITLE: TS BOND ANGLE DIHED IMPRP ELECT VDW BOUNDARY MISC KINETIC TOTAL TEMP POTENTIAL TOTALAVG TEMPAVG PRESSURE GPRESSURE VOLUME PRESSAVG GPRESSAVG
ENERGY: 0 0.4668 5.8316 0.8343 0.0000 -10883.7197 1571.0061 0.0000 0.0000 1782.2798 -7523.3011 302.0320 -9305.5809 -7523.3011 302.0320 829.8225 903.0743 30788.8665 829.8225 903.0743
ENERGY: 300000 2.0898 2.6779 1.9005 0.0000 -10813.1508 1500.0662 0.0000 0.0000 1731.1320 -7575.2845 293.3643 -9306.4164 -7588.4345 297.2331 197.6421 218.4129 31178.1132 64.5016 141.0757
ENERGY: 600000 0.8644 3.2944 0.3533 0.0000 -10786.3312 1473.7346 0.0000 0.0000 1724.3518 -7583.7327 292.2153 -9308.0845 -7582.7760 294.8195 164.2060 265.0756 30552.3952 86.1285 151.3610
ENERGY: 900000 0.0818 3.7927 1.1899 0.0000 -10680.3416 1323.7864 0.0000 0.0000 1769.8174 -7581.6734 299.9201 -9351.4908 -7578.4768 297.2405 -1214.1741 -1183.0629 31059.0275 -196.5509 -128.4758
ENERGY: 1200000 0.5933 3.2401 0.1849 0.0000 -10793.4716 1390.3315 0.0000 0.0000 1804.1099 -7595.0120 305.7314 -9399.1219 -7570.6033 299.0044 -792.9579 -719.8291 30575.5646 -174.9950 -115.2158
ENERGY: 1500000 1.0332 2.3483 0.3003 0.0000 -10812.6638 1399.9735 0.0000 0.0000 1767.3946 -7641.6138 299.5095 -9409.0084 -7570.6656 299.3026 -645.2845 -621.0677 30439.6268 -194.5462 -131.5669
TCL: Running FEP window  19: Lambda1 0.9000000000000002 Lambda2 0.9500000000000003 [dLambda 0.050000000000000044]
TCL: Setting parameter firsttimestep to 0
TCL: Setting parameter alchLambda to 0.9000000000000002
Info: NONBONDED TABLE R-SQUARED SPACING: 0.0625
Info: NONBONDED TABLE SIZE: 705 POINTS
TCL: Setting parameter alchLambda2 to 0.9500000000000003
Info: NONBONDED TABLE R-SQUARED SPACING: 0.0625
Info: NONBONDED TABLE SIZE: 705 POINTS
TCL: Running for 1500000 steps
ETITLE: TS BOND ANGLE DIHED IMPRP ELECT VDW BOUNDARY MISC KINETIC TOTAL TEMP POTENTIAL TOTALAVG TEMPAVG PRESSURE GPRESSURE VOLUME PRESSAVG GPRESSAVG
ENERGY: 0 1.0332 2.3483 0.3003 0.0000 -10814.4246 1401.5220 0.0000 0.0000 1766.4978 -7642.7230 299.3575 -9409.2207 -7642.7230 299.3575 -701.3673 -603.0639 30439.6268 -701.3673 -603.0639
ENERGY: 300000 0.3154 3.5579 0.7699 0.0000 -10781.9195 1437.5728 0.0000 0.0000 1728.2519 -7611.4514 292.8762 -9339.7034 -7602.6193 298.6090 -99.9097 -6.2389 30553.3633 -248.7633 -186.4411
ENERGY: 600000 0.3559 3.3266 0.1812 0.0000 -10714.7532 1414.8310 0.0000 0.0000 1750.9078 -7545.1508 296.7156 -9296.0586 -7585.7874 298.0868 -388.1991 -336.9016 31153.5912 -158.7222 -96.8338
ENERGY: 900000 0.5409 5.6251 0.3835 0.0000 -10921.8980 1596.1260 0.0000 0.0000 1726.3018 -7592.9207 292.5457 -9319.2225 -7582.1713 298.0363 1198.8136 1219.0449 30329.2403 53.6662 106.2265
ENERGY: 1200000 0.4458 2.7920 1.1629 0.0000 -10965.3554 1571.6395 0.0000 0.0000 1794.8687 -7594.4465 304.1654 -9389.3152 -7572.7489 300.3876 1047.0578 1094.4273 30007.8178 113.9914 162.0374
ENERGY: 1500000 0.6394 6.7314 0.6071 0.0000 -10761.9086 1437.5448 0.0000 0.0000 1794.8717 -7521.5143 304.1659 -9316.3859 -7569.0498 300.4643 -58.6131 -84.8115 30682.1833 81.6781 127.3763
TCL: Running FEP window  20: Lambda1 0.9500000000000003 Lambda2 1.0    [dLambda 0.04999999999999971]
TCL: Setting parameter firsttimestep to 0
TCL: Setting parameter alchLambda to 0.9500000000000003
Info: NONBONDED TABLE R-SQUARED SPACING: 0.0625
Info: NONBONDED TABLE SIZE: 705 POINTS
TCL: Setting parameter alchLambda2 to 1.0
Info: NONBONDED TABLE R-SQUARED SPACING: 0.0625
Info: NONBONDED TABLE SIZE: 705 POINTS
TCL: Running for 1500000 steps
ETITLE: TS BOND ANGLE DIHED IMPRP ELECT VDW BOUNDARY MISC KINETIC TOTAL TEMP POTENTIAL TOTALAVG TEMPAVG PRESSURE GPRESSURE VOLUME PRESSAVG GPRESSAVG
ENERGY: 0 0.6394 6.7314 0.6071 0.0000 -10763.9138 1438.7664 0.0000 0.0000 1793.9530 -7523.2165 304.0102 -9317.1695 -7523.2165 304.0102 -150.9457 -69.3423 30682.1833 -150.9457 -69.3423
ENERGY: 300000 0.0150 5.5039 1.9776 0.0000 -10768.4761 1480.2160 0.0000 0.0000 1748.6860 -7532.0777 296.3391 -9280.7637 -7539.3233 301.4225 417.9405 478.0114 30351.1208 159.9605 260.7236
ENERGY: 600000 0.7511 2.9326 0.3288 0.0000 -10840.8118 1498.5040 0.0000 0.0000 1768.4421 -7569.8532 299.6870 -9338.2953 -7555.0004 300.5629 267.4418 291.3883 30634.7087 7.8661 79.5523
ENERGY: 900000 0.2032 5.2933 0.8550 0.0000 -10947.1556 1555.9625 0.0000 0.0000 1804.5021 -7580.3395 305.7979 -9384.8416 -7562.4934 302.0935 875.8271 1006.4331 29867.7043 72.8671 147.4380
ENERGY: 1200000 0.4029 5.4239 0.6713 0.0000 -10690.4511 1410.0517 0.0000 0.0000 1786.8162 -7487.0850 302.8007 -9273.9012 -7557.0703 301.7473 -342.4736 -234.5429 31016.9514 -9.4340 66.9284
ENERGY: 1500000 0.3779 6.6636 1.0885 0.0000 -10924.7864 1520.3321 0.0000 0.0000 1759.9662 -7636.3581 298.2506 -9396.3243 -7557.5102 301.3750 154.0109 246.8749 30664.1933 -50.2352 30.4914
TCL: Exiting due to exit command.
