Info: SIMULATION PARAMETERS:
Info: TIMESTEP               2
Info: NUMBER OF STEPS        0
Info: STEPS PER CYCLE        10
Info: PERIODIC CELL BASIS 1  31.7315 0 0
Info: PERIODIC CELL BASIS 2  0 30.1936 0
Info: PERIODIC CELL BASIS 3  0 0 31.4829
Info: PERIODIC CELL CENTER   0 0 0
Info: WRAPPING WATERS AROUND PERIODIC BOUNDARIES ON OUTPUT.
Info: WRAPPING ALL CLUSTERS AROUND PERIODIC BOUNDARIES ON OUTPUT.
Info: FIRST LDB TIMESTEP     50
Info: LAST LDB TIMESTEP     -1
Info: HOM BACKGROUND SCALING 1
Info: PME BACKGROUND SCALING 1
Info: MIN ATOMS PER PATCH    40
Info: EMPTY PATCH LOAD       40 ATOMS
Info: VELOCITY FILE          mobley_9073553_equil.vel
Info: CENTER OF MASS MOVING INITIALLY? NO
Info: DIELECTRIC             1
Info: EXCLUDE                SCALED ONE-FOUR
Info: 1-4 ELECTROSTATICS SCALED BY 0.833333
Info: MODIFIED 1-4 VDW PARAMETERS WILL BE USED
Info: DCD FILENAME           mobley_9073553_prod.dcd
Info: DCD FREQUENCY          100000
Info: DCD FIRST STEP         100000
Info: DCD FILE WILL CONTAIN UNIT CELL DATA
Info: XST FILENAME           mobley_9073553_prod.xst
Info: XST FREQUENCY          100000
Info: NO VELOCITY DCD OUTPUT
Info: NO FORCE DCD OUTPUT
Info: OUTPUT FILENAME        mobley_9073553_prod
Info: BINARY OUTPUT FILES WILL BE USED
Info: RESTART FILENAME       mobley_9073553_prod.restart
Info: RESTART FREQUENCY      100000
Info: BINARY RESTART FILES WILL BE USED
Info: CUTOFF                 9
Info: PAIRLIST DISTANCE      11
Info: PAIRLIST SHRINK RATE   0.01
Info: PAIRLIST GROW RATE     0.01
Info: PAIRLIST TRIGGER       0.3
Info: PAIRLISTS PER CYCLE    2
Info: PAIRLISTS ENABLED
Info: MARGIN                 2
Info: HYDROGEN GROUP CUTOFF  2.5
Info: PATCH DIMENSION        15.5
Info: ENERGY OUTPUT STEPS    100000
Info: ENERGY EVALUATION STEPS    100000
Info: OUTPUT ENERGY PRECISION 4
Info: CROSSTERM ENERGY INCLUDED IN DIHEDRAL
Info: TIMING OUTPUT STEPS    1000000
Info: PRESSURE OUTPUT STEPS  100000
Info: ALCHEMICAL FEP ON
Info: FEP CURRENT LAMBDA VALUE     0
Info: FEP COMPARISON LAMBDA VALUE  0.05
Info: FEP INTRA-ALCHEMICAL NON-BONDED INTERACTIONS WILL BE RETAINED
Info: FEP INTRA-ALCHEMICAL BONDED INTERACTIONS WILL BE RETAINED
Info: FEP VDW SHIFTING COEFFICIENT 5
Info: FEP ELEC. ACTIVE FOR ANNIHILATED PARTICLES BETWEEN LAMBDA = 0 AND LAMBDA = 0.5
Info: FEP ELEC. ACTIVE FOR EXNIHILATED PARTICLES BETWEEN LAMBDA = 0.5 AND LAMBDA = 1
Info: FEP VDW ACTIVE FOR ANNIHILATED PARTICLES BETWEEN LAMBDA = 0 AND LAMBDA = 1
Info: FEP VDW ACTIVE FOR EXNIHILATED PARTICLES BETWEEN LAMBDA = 0 AND LAMBDA = 1
Info: FEP BOND ACTIVE FOR ANNIHILATED PARTICLES BETWEEN LAMBDA = 1 AND LAMBDA = 1
Info: FEP BOND ACTIVE FOR EXNIHILATED PARTICLES BETWEEN LAMBDA = 0 AND LAMBDA = 0
Info: LANGEVIN DYNAMICS ACTIVE
Info: LANGEVIN TEMPERATURE   300
Info: LANGEVIN USING BBK INTEGRATOR
Info: LANGEVIN DAMPING COEFFICIENT IS 1 INVERSE PS
Info: LANGEVIN DYNAMICS APPLIED TO HYDROGENS
Info: LANGEVIN PISTON PRESSURE CONTROL ACTIVE
Info:        TARGET PRESSURE IS 1.01325 BAR
Info:     OSCILLATION PERIOD IS 50 FS
Info:             DECAY TIME IS 25 FS
Info:     PISTON TEMPERATURE IS 300 K
Info:       PRESSURE CONTROL IS GROUP-BASED
Info:    INITIAL STRAIN RATE IS 0.000374473 0.000374473 0.000374473
Info:       CELL FLUCTUATION IS ISOTROPIC
Info: PARTICLE MESH EWALD (PME) ACTIVE
Info: PME TOLERANCE               1e-06
Info: PME EWALD COEFFICIENT       0.348832
Info: PME INTERPOLATION ORDER     4
Info: PME GRID DIMENSIONS         32 32 32
Info: PME MAXIMUM GRID SPACING    1
Info: PME CALCULATION WILL BE PERFORMED ON GPU
Info: FULL ELECTROSTATIC EVALUATION FREQUENCY      2
Info: USING VERLET I (r-RESPA) MTS SCHEME.
Info: C1 SPLITTING OF LONG RANGE ELECTROSTATICS
Info: PLACING ATOMS IN PATCHES BY HYDROGEN GROUPS
Info: RIGID BONDS TO HYDROGEN : ALL
Info:         ERROR TOLERANCE : 1e-08
Info:          MAX ITERATIONS : 100
Info: RIGID WATER USING SETTLE ALGORITHM
Info: RANDOM NUMBER SEED     1742504925
Info: USE HYDROGEN BONDS?    NO
Info: Using AMBER format force field!
Info: AMBER PARM FILE        mobley_9073553.prmtop
Info: COORDINATE PDB         mobley_9073553.pdb
Info: Exclusions will be read from PARM file!
Info: SCNB (VDW SCALING)     2
Info: USING ARITHMETIC MEAN TO COMBINE L-J SIGMA PARAMETERS
Info: BINARY COORDINATES     mobley_9073553_equil.coor
Info: SUMMARY OF PARAMETERS:
Info: 4 BONDS
Info: 3 ANGLES
Info:   3 HARMONIC
Info:   0 COSINE-BASED
Info: 1 DIHEDRAL
Info: 0 IMPROPER
Info: 0 CROSSTERM
Info: 0 VDW
Info: 15 VDW_PAIRS
Info: 0 NBTHOLE_PAIRS
Info: To read alchdata from file: mobley_9073553.pdb
Info: To read alchflag data from column: 5
Info: STRUCTURE SUMMARY:
Info: 2925 ATOMS
Info: 2924 BONDS
Info: 13 ANGLES
Info: 6 DIHEDRALS
Info: 0 IMPROPERS
Info: 0 CROSSTERMS
Info: 2943 EXCLUSIONS
Info: 2922 RIGID BONDS
Info: ALCH: 0 ATOMS TO DISAPPEAR IN FINAL STATE
Info: ALCH: 9 ATOMS TO APPEAR IN FINAL STATE
Info: 5853 DEGREES OF FREEDOM
Info: 975 HYDROGEN GROUPS
Info: 4 ATOMS IN LARGEST HYDROGEN GROUP
Info: 975 MIGRATION GROUPS
Info: 4 ATOMS IN LARGEST MIGRATION GROUP
Info: TOTAL MASS = 17573.7 amu
Info: TOTAL CHARGE = 0.00029999 e
Info: MASS DENSITY = 0.96748 g/cm^3
Info: ATOM DENSITY = 0.0969719 atoms/A^3
Info: ADDED 0 IMPLICIT EXCLUSIONS
Info: NONBONDED TABLE R-SQUARED SPACING: 0.0625
Info: NONBONDED TABLE SIZE: 705 POINTS
Info: REMOVING COM VELOCITY 0.0235307 0.0198165 0.0908475
Info: Use 3D box decompostion in PME FFT.
Info: Updated CUDA force table with 4096 elements.
Info: Updated CUDA LJ table with 5 x 5 elements.
Info: Found 12 unique exclusion lists needing 16 bytes
TCL: Running for 1500000 steps
ETITLE: TS BOND ANGLE DIHED IMPRP ELECT VDW BOUNDARY MISC KINETIC TOTAL TEMP POTENTIAL TOTALAVG TEMPAVG PRESSURE GPRESSURE VOLUME PRESSAVG GPRESSAVG
ENERGY: 0 0.7182 2.5146 0.3023 0.0000 -10644.0405 1439.3744 0.0000 0.0000 1731.7218 -7469.4092 297.7762 -9201.1310 -7469.4092 297.7762 81.9560 163.9414 30163.3674 81.9560 163.9414
ENERGY: 300000 0.5109 2.1781 1.5948 0.0000 -10623.8631 1364.3412 0.0000 0.0000 1736.5946 -7518.6436 298.6141 -9255.2382 -7465.0002 299.7180 -582.9563 -563.3132 29619.5241 -351.4821 -295.7825
ENERGY: 600000 0.4169 3.9065 0.5114 0.0000 -10576.2110 1446.3630 0.0000 0.0000 1727.1450 -7397.8681 296.9892 -9125.0132 -7447.7582 299.5570 336.8641 406.2251 29722.6044 -116.8616 -48.4284
ENERGY: 900000 0.1573 5.2778 0.3106 0.0000 -10720.0534 1457.0308 0.0000 0.0000 1718.6858 -7538.5911 295.5346 -9257.2768 -7450.9231 299.6145 -8.3157 69.9245 29784.7896 -79.7324 -5.5735
ENERGY: 1200000 1.9027 3.0870 0.1070 0.0000 -10466.2339 1353.8173 0.0000 0.0000 1669.9549 -7437.3652 287.1551 -9107.3200 -7438.3612 300.2866 -534.0890 -420.5686 30415.6059 -69.0579 -0.8419
ENERGY: 1500000 0.3999 1.4708 0.3117 0.0000 -10555.5542 1427.0008 0.0000 0.0000 1751.3881 -7374.9830 301.1579 -9126.3711 -7429.3749 300.5206 173.5555 270.8939 29965.3210 -133.5751 -67.1164
TCL: Running FEP window   2: Lambda1 0.05   Lambda2 0.1    [dLambda 0.05  ]
TCL: Setting parameter firsttimestep to 0
TCL: Setting parameter alchLambda to 0.05
Info: NONBONDED TABLE R-SQUARED SPACING: 0.0625
Info: NONBONDED TABLE SIZE: 705 POINTS
TCL: Setting parameter alchLambda2 to 0.1
Info: NONBONDED TABLE R-SQUARED SPACING: 0.0625
Info: NONBONDED TABLE SIZE: 705 POINTS
TCL: Running for 1500000 steps
ETITLE: TS BOND ANGLE DIHED IMPRP ELECT VDW BOUNDARY MISC KINETIC TOTAL TEMP POTENTIAL TOTALAVG TEMPAVG PRESSURE GPRESSURE VOLUME PRESSAVG GPRESSAVG
ENERGY: 0 0.3999 1.4708 0.3117 0.0000 -10555.5544 1430.1778 0.0000 0.0000 1750.5353 -7372.6590 301.0113 -9123.1943 -7372.6590 301.0113 176.6614 275.4778 29965.3210 176.6614 275.4778
ENERGY: 300000 0.1814 5.6165 1.5303 0.0000 -10599.8260 1398.9283 0.0000 0.0000 1702.6775 -7490.8920 292.7819 -9193.5696 -7464.5387 299.2459 -297.3454 -257.0021 30138.6860 57.1436 135.7834
ENERGY: 600000 0.1054 4.9549 0.0836 0.0000 -10505.4834 1368.8840 0.0000 0.0000 1741.0923 -7390.3632 299.3875 -9131.4554 -7442.0820 299.7826 -325.0689 -229.3570 29932.4206 -71.0746 -2.9952
ENERGY: 900000 0.1775 2.6076 0.5946 0.0000 -10593.7822 1397.0979 0.0000 0.0000 1754.1616 -7439.1431 301.6348 -9193.3046 -7425.8058 302.1888 -377.3222 -265.5969 30095.0066 -29.9294 40.3230
ENERGY: 1200000 0.2135 4.1081 0.1004 0.0000 -10610.4052 1398.8324 0.0000 0.0000 1770.8062 -7436.3446 304.4969 -9207.1508 -7430.6944 302.5779 -68.4746 -14.0031 29585.4997 -25.2715 38.0784
ENERGY: 1500000 0.6223 5.9124 0.3560 0.0000 -10502.6799 1362.6514 0.0000 0.0000 1713.2163 -7419.9214 294.5941 -9133.1377 -7426.0928 302.3024 -637.7425 -522.0873 30172.4693 -47.8999 16.6308
TCL: Running FEP window   3: Lambda1 0.1    Lambda2 0.15000000000000002 [dLambda 0.05000000000000002]
TCL: Setting parameter firsttimestep to 0
TCL: Setting parameter alchLambda to 0.1
Info: NONBONDED TABLE R-SQUARED SPACING: 0.0625
Info: NONBONDED TABLE SIZE: 705 POINTS
TCL: Setting parameter alchLambda2 to 0.15000000000000002
Info: NONBONDED TABLE R-SQUARED SPACING: 0.0625
Info: NONBONDED TABLE SIZE: 705 POINTS
TCL: Running for 1500000 steps
ETITLE: TS BOND ANGLE DIHED IMPRP ELECT VDW BOUNDARY MISC KINETIC TOTAL TEMP POTENTIAL TOTALAVG TEMPAVG PRESSURE GPRESSURE VOLUME PRESSAVG GPRESSAVG
ENERGY: 0 0.6223 5.9124 0.3560 0.0000 -10502.6800 1362.4856 0.0000 0.0000 1712.3513 -7420.9524 294.4454 -9133.3037 -7420.9524 294.4454 -597.9660 -522.4253 30172.4693 -597.9660 -522.4253
ENERGY: 300000 1.3982 3.4118 0.0672 0.0000 -10589.7502 1411.5031 0.0000 0.0000 1774.6689 -7398.7009 305.1611 -9173.3698 -7423.8820 299.7727 -109.7746 -70.2465 30001.4570 -635.0753 -570.5025
ENERGY: 600000 0.0189 4.1338 0.5226 0.0000 -10605.6031 1432.6052 0.0000 0.0000 1797.0698 -7371.2528 309.0130 -9168.3225 -7414.0178 301.5510 -92.8170 -43.7115 30202.4098 -505.8518 -433.4214
ENERGY: 900000 1.0676 3.4557 0.4205 0.0000 -10539.0740 1367.8341 0.0000 0.0000 1746.5363 -7419.7598 300.3236 -9166.2961 -7422.2173 301.8336 -347.0372 -301.1099 29819.1219 -324.1782 -263.0869
ENERGY: 1200000 0.4342 2.3268 0.3345 0.0000 -10512.0429 1405.0375 0.0000 0.0000 1723.3055 -7380.6045 296.3290 -9103.9100 -7423.9335 300.8180 -56.5991 48.0260 30160.6570 -308.5423 -244.2174
ENERGY: 1500000 0.6091 3.0238 0.2815 0.0000 -10582.6398 1412.3405 0.0000 0.0000 1788.4754 -7377.9095 307.5352 -9166.3848 -7427.2970 300.8780 -330.7932 -253.2786 30372.7702 -360.0586 -297.0408
TCL: Running FEP window   4: Lambda1 0.15000000000000002 Lambda2 0.2    [dLambda 0.04999999999999999]
TCL: Setting parameter firsttimestep to 0
TCL: Setting parameter alchLambda to 0.15000000000000002
Info: NONBONDED TABLE R-SQUARED SPACING: 0.0625
Info: NONBONDED TABLE SIZE: 705 POINTS
TCL: Setting parameter alchLambda2 to 0.2
Info: NONBONDED TABLE R-SQUARED SPACING: 0.0625
Info: NONBONDED TABLE SIZE: 705 POINTS
TCL: Running for 1500000 steps
ETITLE: TS BOND ANGLE DIHED IMPRP ELECT VDW BOUNDARY MISC KINETIC TOTAL TEMP POTENTIAL TOTALAVG TEMPAVG PRESSURE GPRESSURE VOLUME PRESSAVG GPRESSAVG
ENERGY: 0 0.6091 3.0238 0.2815 0.0000 -10582.6413 1413.5118 0.0000 0.0000 1787.6049 -7377.6102 307.3855 -9165.2151 -7377.6102 307.3855 -329.6415 -245.8815 30372.7702 -329.6415 -245.8815
ENERGY: 300000 0.3083 5.7054 0.0665 0.0000 -10566.4728 1376.6840 0.0000 0.0000 1744.3818 -7439.3268 299.9531 -9183.7086 -7421.0338 302.6346 -632.1263 -563.3126 30567.0156 -370.8547 -289.8705
ENERGY: 600000 0.0730 1.3856 0.0970 0.0000 -10562.4569 1439.9789 0.0000 0.0000 1738.6571 -7382.2652 298.9688 -9120.9223 -7399.5003 303.5975 113.4981 184.3509 30283.9783 -216.7024 -147.4606
ENERGY: 900000 1.8894 2.4278 0.5039 0.0000 -10578.3921 1373.0847 0.0000 0.0000 1755.3199 -7445.1665 301.8340 -9200.4863 -7423.3554 302.3736 -563.1512 -486.5615 30159.4930 -203.0010 -135.4508
ENERGY: 1200000 0.7373 3.1726 0.3650 0.0000 -10648.7469 1456.1366 0.0000 0.0000 1780.2512 -7408.0841 306.1210 -9188.3354 -7419.8541 301.8228 307.9059 409.0703 29798.9877 -186.7986 -112.7573
ENERGY: 1500000 1.0758 4.2745 1.8726 0.0000 -10652.3711 1352.2776 0.0000 0.0000 1751.2758 -7541.5949 301.1386 -9292.8707 -7425.5775 302.3581 -894.9387 -818.7300 29875.9421 -145.1033 -72.7267
TCL: Running FEP window   5: Lambda1 0.2    Lambda2 0.25   [dLambda 0.04999999999999999]
TCL: Setting parameter firsttimestep to 0
TCL: Setting parameter alchLambda to 0.2
Info: NONBONDED TABLE R-SQUARED SPACING: 0.0625
Info: NONBONDED TABLE SIZE: 705 POINTS
TCL: Setting parameter alchLambda2 to 0.25
Info: NONBONDED TABLE R-SQUARED SPACING: 0.0625
Info: NONBONDED TABLE SIZE: 705 POINTS
TCL: Running for 1500000 steps
ETITLE: TS BOND ANGLE DIHED IMPRP ELECT VDW BOUNDARY MISC KINETIC TOTAL TEMP POTENTIAL TOTALAVG TEMPAVG PRESSURE GPRESSURE VOLUME PRESSAVG GPRESSAVG
ENERGY: 0 1.0758 4.2745 1.8726 0.0000 -10652.3716 1352.7475 0.0000 0.0000 1750.3498 -7542.0514 300.9794 -9292.4012 -7542.0514 300.9794 -914.9529 -813.1317 29875.9421 -914.9529 -813.1317
ENERGY: 300000 0.4076 6.1459 1.3956 0.0000 -10625.6998 1433.4244 0.0000 0.0000 1787.3546 -7396.9717 307.3425 -9184.3263 -7429.5047 304.0034 -99.8270 -52.8513 30443.9553 -464.5760 -386.5452
ENERGY: 600000 0.2375 2.0375 1.0647 0.0000 -10605.6859 1403.1098 0.0000 0.0000 1731.4580 -7467.7784 297.7308 -9199.2363 -7420.8916 305.0514 -378.7026 -341.1301 30318.5422 -268.1352 -190.8395
ENERGY: 900000 1.4690 0.9125 0.0292 0.0000 -10619.4469 1460.6474 0.0000 0.0000 1752.7574 -7403.6313 301.3934 -9156.3888 -7427.6551 304.2990 209.0142 302.2876 30302.1051 -166.2654 -99.4142
ENERGY: 1200000 2.9470 2.9896 0.0683 0.0000 -10569.0380 1394.6919 0.0000 0.0000 1727.5540 -7440.7872 297.0595 -9168.3412 -7427.7309 302.9296 -369.9243 -349.7144 30338.9379 -213.3554 -153.8305
ENERGY: 1500000 1.0244 2.6480 0.2263 0.0000 -10608.3473 1432.8380 0.0000 0.0000 1790.8892 -7380.7214 307.9503 -9171.6106 -7423.9173 303.2961 197.4373 325.3206 29681.9908 -223.0533 -155.5804
TCL: Running FEP window   6: Lambda1 0.25   Lambda2 0.3    [dLambda 0.04999999999999999]
TCL: Setting parameter firsttimestep to 0
TCL: Setting parameter alchLambda to 0.25
Info: NONBONDED TABLE R-SQUARED SPACING: 0.0625
Info: NONBONDED TABLE SIZE: 705 POINTS
TCL: Setting parameter alchLambda2 to 0.3
Info: NONBONDED TABLE R-SQUARED SPACING: 0.0625
Info: NONBONDED TABLE SIZE: 705 POINTS
TCL: Running for 1500000 steps
ETITLE: TS BOND ANGLE DIHED IMPRP ELECT VDW BOUNDARY MISC KINETIC TOTAL TEMP POTENTIAL TOTALAVG TEMPAVG PRESSURE GPRESSURE VOLUME PRESSAVG GPRESSAVG
ENERGY: 0 1.0244 2.6480 0.2263 0.0000 -10608.3469 1433.0853 0.0000 0.0000 1790.0254 -7381.3375 307.8017 -9171.3629 -7381.3375 307.8017 236.0123 329.4000 29681.9908 236.0123 329.4000
ENERGY: 300000 0.7760 2.2743 0.5476 0.0000 -10582.0450 1425.8878 0.0000 0.0000 1744.1232 -7408.4360 299.9087 -9152.5593 -7375.0402 305.5120 64.8366 126.6349 29912.1753 -267.2056 -198.8648
ENERGY: 600000 0.5546 1.2465 0.1271 0.0000 -10621.8987 1414.5640 0.0000 0.0000 1732.3113 -7473.0951 297.8776 -9205.4065 -7412.6895 302.0678 -384.0483 -343.0248 30252.8638 -287.0857 -222.7825
ENERGY: 900000 0.3511 1.0415 0.5343 0.0000 -10553.2271 1377.7100 0.0000 0.0000 1756.2695 -7417.3207 301.9973 -9173.5902 -7431.4256 302.7319 -362.3262 -296.2949 29942.7729 -196.7017 -135.4632
ENERGY: 1200000 1.3486 9.9969 1.2105 0.0000 -10718.1577 1527.2524 0.0000 0.0000 1698.7410 -7479.6084 292.1050 -9178.3494 -7437.1942 301.5076 862.8785 950.6765 29603.1730 7.0655 72.5677
ENERGY: 1500000 0.3369 3.8951 0.4761 0.0000 -10574.1810 1406.7785 0.0000 0.0000 1744.8040 -7417.8905 300.0257 -9162.6945 -7433.4533 301.9177 -31.5557 93.1799 29708.0031 9.5058 81.5352
TCL: Running FEP window   7: Lambda1 0.3    Lambda2 0.35   [dLambda 0.04999999999999999]
TCL: Setting parameter firsttimestep to 0
TCL: Setting parameter alchLambda to 0.3
Info: NONBONDED TABLE R-SQUARED SPACING: 0.0625
Info: NONBONDED TABLE SIZE: 705 POINTS
TCL: Setting parameter alchLambda2 to 0.35
Info: NONBONDED TABLE R-SQUARED SPACING: 0.0625
Info: NONBONDED TABLE SIZE: 705 POINTS
TCL: Running for 1500000 steps
ETITLE: TS BOND ANGLE DIHED IMPRP ELECT VDW BOUNDARY MISC KINETIC TOTAL TEMP POTENTIAL TOTALAVG TEMPAVG PRESSURE GPRESSURE VOLUME PRESSAVG GPRESSAVG
ENERGY: 0 0.3369 3.8951 0.4761 0.0000 -10574.1809 1407.3981 0.0000 0.0000 1743.9361 -7418.1386 299.8765 -9162.0747 -7418.1386 299.8765 0.6021 101.8584 29708.0031 0.6021 101.8584
ENERGY: 300000 0.5081 2.1651 0.7298 0.0000 -10612.7711 1403.4581 0.0000 0.0000 1718.4704 -7487.4395 295.4976 -9205.9099 -7449.4354 297.3163 -204.4200 -203.5476 29969.6412 15.6210 59.5481
ENERGY: 600000 3.2795 6.7134 0.1046 0.0000 -10599.5922 1432.9732 0.0000 0.0000 1710.9363 -7445.5852 294.2021 -9156.5215 -7432.6896 298.2062 137.2709 222.6833 29889.1586 -61.8596 -4.8172
ENERGY: 900000 0.2173 1.5117 1.5719 0.0000 -10604.2149 1447.2893 0.0000 0.0000 1788.4349 -7365.1898 307.5282 -9153.6247 -7423.3283 300.9094 164.2404 242.2472 30299.3379 -65.9650 -2.9952
ENERGY: 1200000 0.4294 2.4628 0.3172 0.0000 -10542.2701 1457.1877 0.0000 0.0000 1739.2251 -7342.6479 299.0664 -9081.8730 -7431.2895 299.8384 332.8057 403.6023 30399.2954 -66.7949 -0.7083
ENERGY: 1500000 0.5403 4.2119 1.1295 0.0000 -10680.7629 1494.2179 0.0000 0.0000 1780.8097 -7399.8536 306.2171 -9180.6633 -7427.2858 299.7134 499.0604 583.1302 29977.8238 -59.6268 9.6643
TCL: Running FEP window   8: Lambda1 0.35   Lambda2 0.39999999999999997 [dLambda 0.04999999999999999]
TCL: Setting parameter firsttimestep to 0
TCL: Setting parameter alchLambda to 0.35
Info: NONBONDED TABLE R-SQUARED SPACING: 0.0625
Info: NONBONDED TABLE SIZE: 705 POINTS
TCL: Setting parameter alchLambda2 to 0.39999999999999997
Info: NONBONDED TABLE R-SQUARED SPACING: 0.0625
Info: NONBONDED TABLE SIZE: 705 POINTS
TCL: Running for 1500000 steps
ETITLE: TS BOND ANGLE DIHED IMPRP ELECT VDW BOUNDARY MISC KINETIC TOTAL TEMP POTENTIAL TOTALAVG TEMPAVG PRESSURE GPRESSURE VOLUME PRESSAVG GPRESSAVG
ENERGY: 0 0.5403 4.2119 1.1295 0.0000 -10680.7630 1494.8042 0.0000 0.0000 1779.9498 -7400.1273 306.0692 -9180.0771 -7400.1273 306.0692 511.8436 590.6073 29977.8238 511.8436 590.6073
ENERGY: 300000 2.1076 2.4752 0.0217 0.0000 -10511.9798 1353.0520 0.0000 0.0000 1817.7134 -7336.6099 312.5628 -9154.3234 -7383.4128 308.4746 -425.5004 -357.6887 30154.2117 203.0057 271.1444
ENERGY: 600000 0.2543 1.7192 0.2409 0.0000 -10511.8983 1387.2211 0.0000 0.0000 1728.6715 -7393.7914 297.2517 -9122.4629 -7410.0714 303.2114 -180.3856 -60.7329 30221.5108 18.6587 89.8946
ENERGY: 900000 0.3958 2.9135 0.5201 0.0000 -10597.4606 1408.0970 0.0000 0.0000 1728.2472 -7457.2870 297.1787 -9185.5342 -7428.1233 301.6271 119.8066 122.2060 29626.5273 -11.4349 53.8085
ENERGY: 1200000 0.8047 1.8792 0.1010 0.0000 -10672.0269 1417.9894 0.0000 0.0000 1719.9787 -7531.2739 295.7569 -9251.2526 -7433.8937 301.2368 -227.2464 -179.3645 29752.5917 -71.3724 -8.1152
ENERGY: 1500000 0.3603 2.0153 1.1467 0.0000 -10562.0271 1410.5430 0.0000 0.0000 1739.6579 -7408.3039 299.1408 -9147.9617 -7429.2845 301.1918 104.3021 206.5564 29648.7876 -85.1580 -13.9634
TCL: Running FEP window   9: Lambda1 0.39999999999999997 Lambda2 0.44999999999999996 [dLambda 0.04999999999999999]
TCL: Setting parameter firsttimestep to 0
TCL: Setting parameter alchLambda to 0.39999999999999997
Info: NONBONDED TABLE R-SQUARED SPACING: 0.0625
Info: NONBONDED TABLE SIZE: 705 POINTS
TCL: Setting parameter alchLambda2 to 0.44999999999999996
Info: NONBONDED TABLE R-SQUARED SPACING: 0.0625
Info: NONBONDED TABLE SIZE: 705 POINTS
TCL: Running for 1500000 steps
ETITLE: TS BOND ANGLE DIHED IMPRP ELECT VDW BOUNDARY MISC KINETIC TOTAL TEMP POTENTIAL TOTALAVG TEMPAVG PRESSURE GPRESSURE VOLUME PRESSAVG GPRESSAVG
ENERGY: 0 0.3603 2.0153 1.1467 0.0000 -10562.0255 1410.3093 0.0000 0.0000 1738.7837 -7409.4101 298.9905 -9148.1938 -7409.4101 298.9905 128.5363 208.9881 29648.7876 128.5363 208.9881
ENERGY: 300000 0.0989 7.6174 0.5347 0.0000 -10539.2958 1372.5882 0.0000 0.0000 1717.2825 -7441.1742 295.2933 -9158.4567 -7440.1906 298.9072 -67.6659 -95.5616 29578.8853 -44.6327 9.5303
ENERGY: 600000 0.5015 3.9034 0.6531 0.0000 -10651.6506 1419.9451 0.0000 0.0000 1725.1698 -7501.4776 296.6496 -9226.6474 -7421.4039 299.7444 -303.8390 -204.4998 30060.6641 -30.8742 30.2162
ENERGY: 900000 1.2734 4.6056 0.1941 0.0000 -10695.0813 1435.4013 0.0000 0.0000 1692.0680 -7561.5388 290.9576 -9253.6068 -7430.7671 298.8023 -13.2667 -7.9146 29855.6335 -68.8174 -11.3175
ENERGY: 1200000 0.3016 2.9875 0.1486 0.0000 -10580.1624 1428.6585 0.0000 0.0000 1707.8338 -7440.2323 293.6686 -9148.0661 -7428.5720 298.0753 191.0889 256.8131 30135.2925 82.5126 142.8694
ENERGY: 1500000 0.1381 1.1907 0.1260 0.0000 -10581.8183 1458.9421 0.0000 0.0000 1741.2770 -7380.1443 299.4192 -9121.4213 -7430.2982 297.5000 213.2661 296.6403 30539.3676 66.3068 121.5263
TCL: Running FEP window  10: Lambda1 0.44999999999999996 Lambda2 0.49999999999999994 [dLambda 0.04999999999999999]
TCL: Setting parameter firsttimestep to 0
TCL: Setting parameter alchLambda to 0.44999999999999996
Info: NONBONDED TABLE R-SQUARED SPACING: 0.0625
Info: NONBONDED TABLE SIZE: 705 POINTS
TCL: Setting parameter alchLambda2 to 0.49999999999999994
Info: NONBONDED TABLE R-SQUARED SPACING: 0.0625
Info: NONBONDED TABLE SIZE: 705 POINTS
TCL: Running for 1500000 steps
ETITLE: TS BOND ANGLE DIHED IMPRP ELECT VDW BOUNDARY MISC KINETIC TOTAL TEMP POTENTIAL TOTALAVG TEMPAVG PRESSURE GPRESSURE VOLUME PRESSAVG GPRESSAVG
ENERGY: 0 0.1381 1.1907 0.1260 0.0000 -10581.8185 1459.1486 0.0000 0.0000 1740.3878 -7380.8272 299.2664 -9121.2150 -7380.8272 299.2664 214.5554 301.1506 30539.3676 214.5554 301.1506
ENERGY: 300000 0.8633 3.1747 1.4274 0.0000 -10581.9474 1366.3191 0.0000 0.0000 1735.9258 -7474.2371 298.4991 -9210.1630 -7437.2823 298.4441 -448.5096 -417.1168 29773.1739 175.6003 230.4729
ENERGY: 600000 0.8912 5.5762 0.3359 0.0000 -10610.5686 1436.3616 0.0000 0.0000 1731.5022 -7435.9015 297.7384 -9167.4037 -7403.3692 299.0956 -163.7071 -125.3228 30511.0596 72.1827 132.0460
ENERGY: 900000 0.8328 1.8548 0.2951 0.0000 -10624.1100 1427.2717 0.0000 0.0000 1745.9654 -7447.8901 300.2254 -9193.8555 -7409.9205 299.1754 158.5871 180.9486 29714.3242 -15.3376 39.9141
ENERGY: 1200000 0.2043 3.6408 1.2832 0.0000 -10621.9170 1438.7873 0.0000 0.0000 1713.7251 -7464.2763 294.6816 -9178.0014 -7418.2625 300.4860 -74.7045 -41.2921 30457.9525 21.5667 78.2689
ENERGY: 1500000 0.5162 0.9410 1.2266 0.0000 -10541.0283 1374.7350 0.0000 0.0000 1828.0540 -7335.5555 314.3409 -9163.6095 -7418.9067 300.7317 -528.4631 -483.2979 30346.1481 -143.5875 -90.0912
TCL: Running FEP window  11: Lambda1 0.49999999999999994 Lambda2 0.5499999999999999 [dLambda 0.04999999999999999]
TCL: Setting parameter firsttimestep to 0
TCL: Setting parameter alchLambda to 0.49999999999999994
Info: NONBONDED TABLE R-SQUARED SPACING: 0.0625
Info: NONBONDED TABLE SIZE: 705 POINTS
TCL: Setting parameter alchLambda2 to 0.5499999999999999
Info: NONBONDED TABLE R-SQUARED SPACING: 0.0625
Info: NONBONDED TABLE SIZE: 705 POINTS
TCL: Running for 1500000 steps
ETITLE: TS BOND ANGLE DIHED IMPRP ELECT VDW BOUNDARY MISC KINETIC TOTAL TEMP POTENTIAL TOTALAVG TEMPAVG PRESSURE GPRESSURE VOLUME PRESSAVG GPRESSAVG
ENERGY: 0 0.5162 0.9410 1.2266 0.0000 -10541.0287 1374.8004 0.0000 0.0000 1827.1913 -7336.3531 314.1926 -9163.5445 -7336.3531 314.1926 -567.2777 -476.3233 30346.1481 -567.2777 -476.3233
ENERGY: 300000 1.1948 3.2509 0.2421 0.0000 -10592.1122 1393.7816 0.0000 0.0000 1735.5991 -7458.0437 298.4429 -9193.6428 -7452.6324 302.7168 -268.0454 -222.9783 29963.3273 111.2399 141.7594
ENERGY: 600000 0.1492 3.8173 0.1885 0.0000 -10607.2106 1397.8439 0.0000 0.0000 1743.3471 -7461.8646 299.7752 -9205.2117 -7429.8998 303.2031 148.4218 210.5418 29267.2027 58.6790 107.9289
ENERGY: 900000 0.2523 3.2239 0.2926 0.0000 -10530.7336 1342.9418 0.0000 0.0000 1768.0547 -7415.9683 304.0238 -9184.0230 -7440.3206 302.0333 -688.7794 -618.5920 30227.3754 -22.6122 30.1955
ENERGY: 1200000 0.0323 1.7166 0.6506 0.0000 -10550.2775 1336.8128 0.0000 0.0000 1764.1315 -7446.9337 303.3492 -9211.0652 -7435.1013 302.2172 -813.8899 -735.2821 30061.6406 -60.6697 -9.9105
ENERGY: 1500000 0.3068 3.0407 0.9007 0.0000 -10595.9761 1408.1352 0.0000 0.0000 1737.1108 -7446.4819 298.7029 -9183.5926 -7442.9432 301.6132 -175.2356 -144.8671 30079.7333 -53.5348 0.5527
TCL: Running FEP window  12: Lambda1 0.5499999999999999 Lambda2 0.6    [dLambda 0.050000000000000044]
TCL: Setting parameter firsttimestep to 0
TCL: Setting parameter alchLambda to 0.5499999999999999
Info: NONBONDED TABLE R-SQUARED SPACING: 0.0625
Info: NONBONDED TABLE SIZE: 705 POINTS
TCL: Setting parameter alchLambda2 to 0.6
Info: NONBONDED TABLE R-SQUARED SPACING: 0.0625
Info: NONBONDED TABLE SIZE: 705 POINTS
TCL: Running for 1500000 steps
ETITLE: TS BOND ANGLE DIHED IMPRP ELECT VDW BOUNDARY MISC KINETIC TOTAL TEMP POTENTIAL TOTALAVG TEMPAVG PRESSURE GPRESSURE VOLUME PRESSAVG GPRESSAVG
ENERGY: 0 0.3068 3.0407 0.9007 0.0000 -10595.8811 1407.9398 0.0000 0.0000 1736.2660 -7447.4270 298.5576 -9183.6930 -7447.4270 298.5576 -218.8059 -142.2674 30079.7333 -218.8059 -142.2674
ENERGY: 300000 0.8769 6.1124 0.9149 0.0000 -10714.0073 1449.5932 0.0000 0.0000 1709.6271 -7546.8828 293.9769 -9256.5099 -7458.5662 299.9076 87.8238 102.2368 30023.0822 -139.5289 -64.3264
ENERGY: 600000 0.2481 8.5433 1.0207 0.0000 -10684.7186 1434.7407 0.0000 0.0000 1771.9133 -7468.2525 304.6873 -9240.1658 -7457.8105 299.7418 81.1921 131.9602 29880.0925 -128.6533 -62.4771
ENERGY: 900000 1.4315 5.9604 0.4060 0.0000 -10801.2165 1571.6115 0.0000 0.0000 1769.2898 -7452.5174 304.2362 -9221.8071 -7464.1352 299.9360 1146.4351 1148.6352 29723.8881 163.0526 219.3974
ENERGY: 1200000 1.4608 5.4352 0.3243 0.0000 -10678.3766 1458.7899 0.0000 0.0000 1707.3414 -7505.0251 293.5839 -9212.3665 -7464.7894 299.4201 432.0779 457.3411 29690.0473 113.0441 168.3318
ENERGY: 1500000 0.3458 2.1792 1.0951 0.0000 -10650.6286 1473.3333 0.0000 0.0000 1764.5472 -7409.1281 303.4206 -9173.6752 -7457.1725 299.7761 318.0594 427.5301 30170.6739 148.6013 211.2276
TCL: Running FEP window  13: Lambda1 0.6    Lambda2 0.65   [dLambda 0.050000000000000044]
TCL: Setting parameter firsttimestep to 0
TCL: Setting parameter alchLambda to 0.6
Info: NONBONDED TABLE R-SQUARED SPACING: 0.0625
Info: NONBONDED TABLE SIZE: 705 POINTS
TCL: Setting parameter alchLambda2 to 0.65
Info: NONBONDED TABLE R-SQUARED SPACING: 0.0625
Info: NONBONDED TABLE SIZE: 705 POINTS
TCL: Running for 1500000 steps
ETITLE: TS BOND ANGLE DIHED IMPRP ELECT VDW BOUNDARY MISC KINETIC TOTAL TEMP POTENTIAL TOTALAVG TEMPAVG PRESSURE GPRESSURE VOLUME PRESSAVG GPRESSAVG
ENERGY: 0 0.3458 2.1792 1.0951 0.0000 -10650.6218 1473.1698 0.0000 0.0000 1763.6703 -7410.1617 303.2699 -9173.8320 -7410.1617 303.2699 345.7304 429.9176 30170.6739 345.7304 429.9176
ENERGY: 300000 0.2262 3.1470 1.3146 0.0000 -10532.0122 1409.7901 0.0000 0.0000 1748.0063 -7369.5280 300.5764 -9117.5343 -7434.1567 301.6070 -129.0680 -25.4618 30319.4442 177.8937 233.0463
ENERGY: 600000 0.7749 4.6631 0.7700 0.0000 -10659.8647 1394.7005 0.0000 0.0000 1737.5375 -7521.4187 298.7762 -9258.9562 -7463.6264 300.2471 -468.4466 -383.2239 29955.7892 50.8512 104.2924
ENERGY: 900000 0.3803 4.3363 0.2386 0.0000 -10580.3776 1390.8011 0.0000 0.0000 1762.1854 -7422.4358 303.0145 -9184.6212 -7441.7050 301.8275 -255.6632 -257.1954 30220.1846 -76.9375 -31.3624
ENERGY: 1200000 0.1821 3.5229 1.3533 0.0000 -10702.8827 1413.5155 0.0000 0.0000 1781.6458 -7502.6630 306.3608 -9284.3088 -7461.9751 301.3613 -190.4971 -146.3853 29773.3016 -139.1174 -96.2091
ENERGY: 1500000 0.3946 3.2512 2.5856 0.0000 -10559.6117 1413.6057 0.0000 0.0000 1730.2557 -7409.5188 297.5241 -9139.7746 -7461.8430 301.0029 -1.7366 48.4803 30006.0082 -64.6139 -25.0478
TCL: Running FEP window  14: Lambda1 0.65   Lambda2 0.7000000000000001 [dLambda 0.050000000000000044]
TCL: Setting parameter firsttimestep to 0
TCL: Setting parameter alchLambda to 0.65
Info: NONBONDED TABLE R-SQUARED SPACING: 0.0625
Info: NONBONDED TABLE SIZE: 705 POINTS
TCL: Setting parameter alchLambda2 to 0.7000000000000001
Info: NONBONDED TABLE R-SQUARED SPACING: 0.0625
Info: NONBONDED TABLE SIZE: 705 POINTS
TCL: Running for 1500000 steps
ETITLE: TS BOND ANGLE DIHED IMPRP ELECT VDW BOUNDARY MISC KINETIC TOTAL TEMP POTENTIAL TOTALAVG TEMPAVG PRESSURE GPRESSURE VOLUME PRESSAVG GPRESSAVG
ENERGY: 0 0.3946 3.2512 2.5856 0.0000 -10559.8309 1413.7873 0.0000 0.0000 1729.4074 -7410.4048 297.3782 -9139.8121 -7410.4048 297.3782 -18.3076 56.1668 30006.0082 -18.3076 56.1668
ENERGY: 300000 0.5575 3.6700 1.3112 0.0000 -10666.3356 1432.2377 0.0000 0.0000 1773.1336 -7455.4256 304.8971 -9228.5592 -7434.6332 299.8712 -205.6951 -100.6505 30281.0382 -255.1076 -187.0212
ENERGY: 600000 0.2585 2.5322 1.0477 0.0000 -10744.2665 1475.1609 0.0000 0.0000 1773.1877 -7492.0796 304.9064 -9265.2673 -7445.9937 300.9286 199.3304 235.1978 29984.6325 -23.5734 41.1696
ENERGY: 900000 0.4164 4.5037 0.5063 0.0000 -10711.8146 1478.0528 0.0000 0.0000 1685.1318 -7543.2036 289.7649 -9228.3354 -7469.0785 298.8326 135.7345 226.6741 30303.4054 39.2055 107.1211
ENERGY: 1200000 0.0172 2.6386 0.7259 0.0000 -10573.2914 1404.4135 0.0000 0.0000 1752.0834 -7413.4129 301.2775 -9165.4962 -7467.5450 297.8145 -146.1098 -82.7858 30080.4440 132.4395 195.5458
ENERGY: 1500000 0.3748 3.3674 1.3151 0.0000 -10638.3124 1442.4105 0.0000 0.0000 1715.7944 -7475.0502 295.0374 -9190.8445 -7480.8298 296.8014 43.3831 132.8912 30001.1089 86.6988 155.9497
TCL: Running FEP window  15: Lambda1 0.7000000000000001 Lambda2 0.7500000000000001 [dLambda 0.050000000000000044]
TCL: Setting parameter firsttimestep to 0
TCL: Setting parameter alchLambda to 0.7000000000000001
Info: NONBONDED TABLE R-SQUARED SPACING: 0.0625
Info: NONBONDED TABLE SIZE: 705 POINTS
TCL: Setting parameter alchLambda2 to 0.7500000000000001
Info: NONBONDED TABLE R-SQUARED SPACING: 0.0625
Info: NONBONDED TABLE SIZE: 705 POINTS
TCL: Running for 1500000 steps
ETITLE: TS BOND ANGLE DIHED IMPRP ELECT VDW BOUNDARY MISC KINETIC TOTAL TEMP POTENTIAL TOTALAVG TEMPAVG PRESSURE GPRESSURE VOLUME PRESSAVG GPRESSAVG
ENERGY: 0 0.3748 3.3674 1.3151 0.0000 -10638.3748 1442.5305 0.0000 0.0000 1714.9316 -7475.8553 294.8891 -9190.7869 -7475.8553 294.8891 63.6242 142.3678 30001.1089 63.6242 142.3678
ENERGY: 300000 0.2875 4.5165 0.6206 0.0000 -10680.5459 1493.1659 0.0000 0.0000 1714.8563 -7467.0992 294.8761 -9181.9555 -7460.8738 296.8294 785.7631 821.9618 29687.5944 70.7109 111.6302
ENERGY: 600000 1.4804 3.1571 0.0604 0.0000 -10468.2320 1299.7919 0.0000 0.0000 1786.1990 -7377.5432 307.1438 -9163.7421 -7439.2650 298.4749 -830.8813 -726.4234 29866.5763 -82.6886 -17.0387
ENERGY: 900000 0.4498 4.8305 0.0286 0.0000 -10650.4025 1465.0178 0.0000 0.0000 1719.5416 -7460.5343 295.6818 -9180.0759 -7443.7915 298.2834 455.3256 510.0821 29685.4752 -70.1280 -7.4054
ENERGY: 1200000 2.4953 3.0314 0.7669 0.0000 -10772.6104 1475.4208 0.0000 0.0000 1756.4638 -7534.4323 302.0307 -9290.8961 -7447.2037 297.6784 212.6311 366.0072 29753.1396 -121.7859 -49.9157
ENERGY: 1500000 0.1136 3.8774 0.4181 0.0000 -10601.0846 1377.3557 0.0000 0.0000 1767.9916 -7451.3282 304.0129 -9219.3199 -7444.5224 298.8598 -402.1434 -370.0834 29860.6518 -129.1735 -61.9819
TCL: Running FEP window  16: Lambda1 0.7500000000000001 Lambda2 0.8000000000000002 [dLambda 0.050000000000000044]
TCL: Setting parameter firsttimestep to 0
TCL: Setting parameter alchLambda to 0.7500000000000001
Info: NONBONDED TABLE R-SQUARED SPACING: 0.0625
Info: NONBONDED TABLE SIZE: 705 POINTS
TCL: Setting parameter alchLambda2 to 0.8000000000000002
Info: NONBONDED TABLE R-SQUARED SPACING: 0.0625
Info: NONBONDED TABLE SIZE: 705 POINTS
TCL: Running for 1500000 steps
ETITLE: TS BOND ANGLE DIHED IMPRP ELECT VDW BOUNDARY MISC KINETIC TOTAL TEMP POTENTIAL TOTALAVG TEMPAVG PRESSURE GPRESSURE VOLUME PRESSAVG GPRESSAVG
ENERGY: 0 0.1136 3.8773 0.4181 0.0000 -10600.9938 1377.1296 0.0000 0.0000 1767.1359 -7452.3193 303.8658 -9219.4552 -7452.3193 303.8658 -452.6562 -367.5989 29860.6518 -452.6562 -367.5989
ENERGY: 300000 0.3825 3.0721 0.3951 0.0000 -10666.5997 1472.1915 0.0000 0.0000 1749.0122 -7441.5464 300.7493 -9190.5586 -7437.8556 300.5628 485.5134 557.2403 29786.3063 -51.8080 16.7200
ENERGY: 600000 0.7942 6.7486 0.4513 0.0000 -10585.8845 1397.3733 0.0000 0.0000 1740.5956 -7439.9215 299.3021 -9180.5171 -7450.6735 300.0979 -81.2954 -90.0704 30059.2045 -64.5680 -7.0152
ENERGY: 900000 0.2500 4.3632 1.1278 0.0000 -10659.2312 1483.6008 0.0000 0.0000 1723.3523 -7446.5371 296.3370 -9169.8894 -7444.2693 300.4099 615.1615 721.6051 29877.8814 44.9682 105.9407
ENERGY: 1200000 0.2283 2.5306 2.1310 0.0000 -10610.5054 1390.7097 0.0000 0.0000 1760.1039 -7454.8018 302.6566 -9214.9057 -7446.0865 300.3302 -254.1232 -240.5540 30039.8639 -1.8285 56.4056
ENERGY: 1500000 0.4136 2.7188 1.3695 0.0000 -10688.8975 1441.3443 0.0000 0.0000 1737.9927 -7505.0586 298.8545 -9243.0513 -7449.4493 300.0642 -219.5048 -169.3101 30300.4631 -57.9102 3.1692
TCL: Running FEP window  17: Lambda1 0.8000000000000002 Lambda2 0.8500000000000002 [dLambda 0.050000000000000044]
TCL: Setting parameter firsttimestep to 0
TCL: Setting parameter alchLambda to 0.8000000000000002
Info: NONBONDED TABLE R-SQUARED SPACING: 0.0625
Info: NONBONDED TABLE SIZE: 705 POINTS
TCL: Setting parameter alchLambda2 to 0.8500000000000002
Info: NONBONDED TABLE R-SQUARED SPACING: 0.0625
Info: NONBONDED TABLE SIZE: 705 POINTS
TCL: Running for 1500000 steps
ETITLE: TS BOND ANGLE DIHED IMPRP ELECT VDW BOUNDARY MISC KINETIC TOTAL TEMP POTENTIAL TOTALAVG TEMPAVG PRESSURE GPRESSURE VOLUME PRESSAVG GPRESSAVG
ENERGY: 0 0.4136 2.7188 1.3695 0.0000 -10689.1077 1441.4668 0.0000 0.0000 1737.0827 -7506.0563 298.6980 -9243.1390 -7506.0563 298.6980 -244.4658 -160.4133 30300.4631 -244.4658 -160.4133
ENERGY: 300000 0.7779 3.1665 1.8057 0.0000 -10506.8905 1355.6302 0.0000 0.0000 1773.4649 -7372.0451 304.9541 -9145.5100 -7438.2915 302.8821 -513.3378 -421.0969 30291.1042 -530.2481 -439.2135
ENERGY: 600000 1.3184 3.6584 0.6117 0.0000 -10535.8737 1349.7592 0.0000 0.0000 1734.6288 -7445.8972 298.2761 -9180.5260 -7442.3182 302.1437 -617.1342 -547.0253 30112.1409 -307.4605 -230.1063
ENERGY: 900000 0.0309 7.3152 1.8906 0.0000 -10696.4181 1462.3057 0.0000 0.0000 1709.9279 -7514.9479 294.0287 -9224.8758 -7439.7621 301.7812 323.8005 392.3403 29678.5983 -186.3125 -117.2348
ENERGY: 1200000 0.4697 3.6342 0.3760 0.0000 -10535.6630 1333.6496 0.0000 0.0000 1764.6448 -7432.8887 303.4374 -9197.5335 -7425.2493 302.7973 -481.8214 -436.4866 29752.9250 -156.5649 -92.0644
ENERGY: 1500000 0.1108 4.4337 1.1318 0.0000 -10655.8009 1391.7644 0.0000 0.0000 1760.7111 -7497.6490 302.7610 -9258.3601 -7430.9808 302.8656 -552.2466 -495.7630 30370.0659 -242.1404 -177.5558
TCL: Running FEP window  18: Lambda1 0.8500000000000002 Lambda2 0.9000000000000002 [dLambda 0.050000000000000044]
TCL: Setting parameter firsttimestep to 0
TCL: Setting parameter alchLambda to 0.8500000000000002
Info: NONBONDED TABLE R-SQUARED SPACING: 0.0625
Info: NONBONDED TABLE SIZE: 705 POINTS
TCL: Setting parameter alchLambda2 to 0.9000000000000002
Info: NONBONDED TABLE R-SQUARED SPACING: 0.0625
Info: NONBONDED TABLE SIZE: 705 POINTS
TCL: Running for 1500000 steps
ETITLE: TS BOND ANGLE DIHED IMPRP ELECT VDW BOUNDARY MISC KINETIC TOTAL TEMP POTENTIAL TOTALAVG TEMPAVG PRESSURE GPRESSURE VOLUME PRESSAVG GPRESSAVG
ENERGY: 0 0.1108 4.4337 1.1318 0.0000 -10656.0824 1391.5423 0.0000 0.0000 1759.8414 -7499.0224 302.6115 -9258.8637 -7499.0224 302.6115 -575.1064 -492.6710 30370.0659 -575.1064 -492.6710
ENERGY: 300000 0.0661 2.9854 1.2770 0.0000 -10552.8537 1371.5397 0.0000 0.0000 1733.2525 -7443.7329 298.0394 -9176.9854 -7443.5754 301.6584 -366.6975 -357.0471 30165.4866 -532.9435 -469.8714
ENERGY: 600000 0.0591 3.3894 0.1115 0.0000 -10650.6994 1459.9494 0.0000 0.0000 1700.6719 -7486.5181 292.4370 -9187.1900 -7444.8234 299.8445 333.3542 424.7398 29979.6765 -62.0792 5.6445
ENERGY: 900000 0.1810 6.9273 0.0830 0.0000 -10699.8018 1519.4439 0.0000 0.0000 1794.3138 -7378.8528 308.5391 -9173.1666 -7438.3008 299.3109 793.5773 893.7612 29782.5031 95.5423 165.6252
ENERGY: 1200000 0.3988 2.9779 0.3005 0.0000 -10593.7658 1428.8229 0.0000 0.0000 1744.1759 -7417.0899 299.9177 -9161.2658 -7433.4063 299.5783 149.5471 215.5654 30173.9650 11.3417 82.4268
ENERGY: 1500000 0.5595 2.6485 0.0596 0.0000 -10720.3155 1483.9316 0.0000 0.0000 1725.9218 -7507.1945 296.7789 -9233.1164 -7440.0548 299.5850 297.8395 238.9313 30213.6785 15.7323 80.5044
TCL: Running FEP window  19: Lambda1 0.9000000000000002 Lambda2 0.9500000000000003 [dLambda 0.050000000000000044]
TCL: Setting parameter firsttimestep to 0
TCL: Setting parameter alchLambda to 0.9000000000000002
Info: NONBONDED TABLE R-SQUARED SPACING: 0.0625
Info: NONBONDED TABLE SIZE: 705 POINTS
TCL: Setting parameter alchLambda2 to 0.9500000000000003
Info: NONBONDED TABLE R-SQUARED SPACING: 0.0625
Info: NONBONDED TABLE SIZE: 705 POINTS
TCL: Running for 1500000 steps
ETITLE: TS BOND ANGLE DIHED IMPRP ELECT VDW BOUNDARY MISC KINETIC TOTAL TEMP POTENTIAL TOTALAVG TEMPAVG PRESSURE GPRESSURE VOLUME PRESSAVG GPRESSAVG
ENERGY: 0 0.5595 2.6485 0.0596 0.0000 -10720.8432 1485.1324 0.0000 0.0000 1725.0504 -7507.3929 296.6290 -9232.4433 -7507.3929 296.6290 171.3260 258.9333 30213.6785 171.3260 258.9333
ENERGY: 300000 1.2798 2.4522 1.9166 0.0000 -10678.9460 1502.5785 0.0000 0.0000 1711.9016 -7458.8173 294.3680 -9170.7189 -7468.1408 296.6805 301.6738 383.1917 30522.3018 197.2736 275.4452
ENERGY: 600000 0.1251 3.4314 0.1904 0.0000 -10544.5387 1364.7339 0.0000 0.0000 1709.5431 -7466.5148 293.9625 -9176.0579 -7446.9199 298.6065 -448.2587 -433.8211 30211.6975 -90.3579 -11.3058
ENERGY: 900000 2.0755 3.9926 0.6985 0.0000 -10454.3335 1377.1769 0.0000 0.0000 1708.4145 -7361.9755 293.7684 -9070.3900 -7445.5786 298.7250 -251.6578 -180.4744 30194.1230 -55.9466 16.5706
ENERGY: 1200000 0.1293 5.0172 1.1187 0.0000 -10495.5837 1322.4746 0.0000 0.0000 1684.1752 -7482.6686 289.6004 -9166.8439 -7453.6628 297.7802 -704.4958 -733.1681 30115.2951 -110.6168 -45.3278
ENERGY: 1500000 1.5215 1.7922 0.0552 0.0000 -10508.4847 1353.8471 0.0000 0.0000 1730.2898 -7420.9790 297.5300 -9151.2688 -7446.4192 298.2726 -598.7332 -546.3470 30468.5373 -101.7563 -36.5763
TCL: Running FEP window  20: Lambda1 0.9500000000000003 Lambda2 1.0    [dLambda 0.04999999999999971]
TCL: Setting parameter firsttimestep to 0
TCL: Setting parameter alchLambda to 0.9500000000000003
Info: NONBONDED TABLE R-SQUARED SPACING: 0.0625
Info: NONBONDED TABLE SIZE: 705 POINTS
TCL: Setting parameter alchLambda2 to 1.0
Info: NONBONDED TABLE R-SQUARED SPACING: 0.0625
Info: NONBONDED TABLE SIZE: 705 POINTS
TCL: Running for 1500000 steps
ETITLE: TS BOND ANGLE DIHED IMPRP ELECT VDW BOUNDARY MISC KINETIC TOTAL TEMP POTENTIAL TOTALAVG TEMPAVG PRESSURE GPRESSURE VOLUME PRESSAVG GPRESSAVG
ENERGY: 0 1.5215 1.7921 0.0552 0.0000 -10509.0493 1353.6599 0.0000 0.0000 1729.4295 -7422.5911 297.3820 -9152.0206 -7422.5911 297.3820 -624.9132 -542.7793 30468.5373 -624.9132 -542.7793
ENERGY: 300000 0.1288 6.1330 0.3587 0.0000 -10671.5443 1388.6175 0.0000 0.0000 1772.2744 -7504.0319 304.7494 -9276.3063 -7413.3027 301.3187 -580.4038 -497.8945 30153.3500 -154.8718 -72.9539
ENERGY: 600000 0.0676 3.8129 0.9117 0.0000 -10655.4426 1410.4978 0.0000 0.0000 1750.6039 -7489.5487 301.0230 -9240.1526 -7447.8681 298.9914 -269.3422 -230.6570 30159.3883 -32.2940 49.3910
ENERGY: 900000 0.0974 2.1380 1.3942 0.0000 -10732.7311 1532.3518 0.0000 0.0000 1763.0732 -7433.6765 303.1672 -9196.7497 -7442.4359 299.3222 955.7615 1041.1410 29688.3052 -44.2868 31.5488
ENERGY: 1200000 0.2340 3.9714 1.2683 0.0000 -10711.4700 1522.2296 0.0000 0.0000 1743.9707 -7439.7961 299.8824 -9183.7667 -7446.4607 299.3062 703.8938 775.3048 30096.3042 80.1199 145.9503
ENERGY: 1500000 0.6706 2.5510 1.0323 0.0000 -10653.7618 1450.5713 0.0000 0.0000 1802.3070 -7396.6296 309.9136 -9198.9366 -7442.7841 300.3153 -26.4847 -5.4858 30521.7414 -14.9469 50.8963
TCL: Exiting due to exit command.
