Info: SIMULATION PARAMETERS:
Info: TIMESTEP               2
Info: NUMBER OF STEPS        0
Info: STEPS PER CYCLE        10
Info: PERIODIC CELL BASIS 1  42.812 0 0
Info: PERIODIC CELL BASIS 2  0 42.118 0
Info: PERIODIC CELL BASIS 3  0 0 42.04
Info: PERIODIC CELL CENTER   0 0 0
Info: WRAPPING WATERS AROUND PERIODIC BOUNDARIES ON OUTPUT.
Info: WRAPPING ALL CLUSTERS AROUND PERIODIC BOUNDARIES ON OUTPUT.
Info: FIRST LDB TIMESTEP     50
Info: LAST LDB TIMESTEP     -1
Info: HOM BACKGROUND SCALING 1
Info: PME BACKGROUND SCALING 1
Info: MIN ATOMS PER PATCH    40
Info: EMPTY PATCH LOAD       40 ATOMS
Info: INITIAL TEMPERATURE    300
Info: CENTER OF MASS MOVING INITIALLY? NO
Info: DIELECTRIC             1
Info: EXCLUDE                SCALED ONE-FOUR
Info: 1-4 ELECTROSTATICS SCALED BY 0.833333
Info: MODIFIED 1-4 VDW PARAMETERS WILL BE USED
Info: DCD FILENAME           mobley_7017274_min.dcd
Info: DCD FREQUENCY          5000
Info: DCD FIRST STEP         5000
Info: DCD FILE WILL CONTAIN UNIT CELL DATA
Info: XST FILENAME           mobley_7017274_min.xst
Info: XST FREQUENCY          5000
Info: NO VELOCITY DCD OUTPUT
Info: NO FORCE DCD OUTPUT
Info: OUTPUT FILENAME        mobley_7017274_min
Info: BINARY OUTPUT FILES WILL BE USED
Info: RESTART FILENAME       mobley_7017274_min.restart
Info: RESTART FREQUENCY      5000
Info: BINARY RESTART FILES WILL BE USED
Info: CUTOFF                 9
Info: PAIRLIST DISTANCE      11
Info: PAIRLIST SHRINK RATE   0.01
Info: PAIRLIST GROW RATE     0.01
Info: PAIRLIST TRIGGER       0.3
Info: PAIRLISTS PER CYCLE    2
Info: PAIRLISTS ENABLED
Info: MARGIN                 8
Info: HYDROGEN GROUP CUTOFF  2.5
Info: PATCH DIMENSION        21.5
Info: ENERGY OUTPUT STEPS    5000
Info: ENERGY EVALUATION STEPS    5000
Info: OUTPUT ENERGY PRECISION 4
Info: CROSSTERM ENERGY INCLUDED IN DIHEDRAL
Info: TIMING OUTPUT STEPS    50000
Info: PRESSURE OUTPUT STEPS  5000
Info: LANGEVIN DYNAMICS ACTIVE
Info: LANGEVIN TEMPERATURE   300
Info: LANGEVIN USING BBK INTEGRATOR
Info: LANGEVIN DAMPING COEFFICIENT IS 1 INVERSE PS
Info: LANGEVIN DYNAMICS APPLIED TO HYDROGENS
Info: LANGEVIN PISTON PRESSURE CONTROL ACTIVE
Info:        TARGET PRESSURE IS 1.01325 BAR
Info:     OSCILLATION PERIOD IS 50 FS
Info:             DECAY TIME IS 25 FS
Info:     PISTON TEMPERATURE IS 300 K
Info:       PRESSURE CONTROL IS GROUP-BASED
Info:    INITIAL STRAIN RATE IS 0 0 0
Info:       CELL FLUCTUATION IS ISOTROPIC
Info: PARTICLE MESH EWALD (PME) ACTIVE
Info: PME TOLERANCE               1e-06
Info: PME EWALD COEFFICIENT       0.348832
Info: PME INTERPOLATION ORDER     4
Info: PME GRID DIMENSIONS         44 44 44
Info: PME MAXIMUM GRID SPACING    1
Info: FULL ELECTROSTATIC EVALUATION FREQUENCY      2
Info: USING VERLET I (r-RESPA) MTS SCHEME.
Info: C1 SPLITTING OF LONG RANGE ELECTROSTATICS
Info: PLACING ATOMS IN PATCHES BY HYDROGEN GROUPS
Info: RIGID BONDS TO HYDROGEN : ALL
Info:         ERROR TOLERANCE : 1e-08
Info:          MAX ITERATIONS : 100
Info: RIGID WATER USING SETTLE ALGORITHM
Info: RANDOM NUMBER SEED     1741386312
Info: USE HYDROGEN BONDS?    NO
Info: Using AMBER format force field!
Info: AMBER PARM FILE        mobley_7017274.prmtop
Info: COORDINATE PDB         mobley_7017274.pdb
Info: Exclusions will be read from PARM file!
Info: SCNB (VDW SCALING)     2
Info: USING ARITHMETIC MEAN TO COMBINE L-J SIGMA PARAMETERS
Info: SUMMARY OF PARAMETERS:
Info: 4 BONDS
Info: 2 ANGLES
Info:   2 HARMONIC
Info:   0 COSINE-BASED
Info: 2 DIHEDRAL
Info: 0 IMPROPER
Info: 0 CROSSTERM
Info: 0 VDW
Info: 10 VDW_PAIRS
Info: 0 NBTHOLE_PAIRS
Info: STRUCTURE SUMMARY:
Info: 5469 ATOMS
Info: 5471 BONDS
Info: 42 ANGLES
Info: 74 DIHEDRALS
Info: 0 IMPROPERS
Info: 0 CROSSTERMS
Info: 5568 EXCLUSIONS
Info: 5455 RIGID BONDS
Info: 10952 DEGREES OF FREEDOM
Info: 1829 HYDROGEN GROUPS
Info: 3 ATOMS IN LARGEST HYDROGEN GROUP
Info: 1829 MIGRATION GROUPS
Info: 3 ATOMS IN LARGEST MIGRATION GROUP
Info: TOTAL MASS = 32877.3 amu
Info: TOTAL CHARGE = -0.000199988 e
Info: MASS DENSITY = 0.72021 g/cm^3
Info: ATOM DENSITY = 0.072146 atoms/A^3
Info: ADDED 0 IMPLICIT EXCLUSIONS
Info: NONBONDED TABLE R-SQUARED SPACING: 0.0625
Info: NONBONDED TABLE SIZE: 705 POINTS
Info: REMOVING COM VELOCITY 0.0516272 0.0631559 0.0656227
TCL: Minimizing for 2000 steps
ETITLE: TS BOND ANGLE DIHED IMPRP ELECT VDW BOUNDARY MISC KINETIC TOTAL TEMP POTENTIAL TOTAL3 TEMPAVG PRESSURE GPRESSURE VOLUME PRESSAVG GPRESSAVG
ENERGY: 0 1.3729 1.8516 0.0004 0.0000 -17131.5105 1934.7055 0.0000 0.0000 0.0000 -15193.5801 0.0000 -15193.5801 -15193.5801 0.0000 11177.7722 -15831.6600 75804.6705 11177.7722 -15831.6600
ENERGY: 400 5.2707 2.7471 0.7709 0.0000 -22843.9242 3246.5609 0.0000 0.0000 0.0000 -19588.5747 0.0000 -19588.5747 -19588.5747 0.0000 15379.5385 15520.6727 75804.6705 15379.5385 15520.6727
ENERGY: 800 1.5649 1.4338 0.0980 0.0000 -24002.0973 3796.5315 0.0000 0.0000 0.0000 -20202.4691 0.0000 -20202.4691 -20202.4691 0.0000 17598.8424 17713.6531 75804.6705 17598.8424 17713.6531
ENERGY: 1200 1.5874 1.1309 0.0609 0.0000 -24511.2361 4055.4877 0.0000 0.0000 0.0000 -20452.9692 0.0000 -20452.9692 -20452.9692 0.0000 18694.2780 18804.4087 75804.6705 18694.2780 18804.4087
ENERGY: 1600 1.2480 1.2133 0.0413 0.0000 -24734.2162 4145.7166 0.0000 0.0000 0.0000 -20585.9969 0.0000 -20585.9969 -20585.9969 0.0000 19100.3049 19201.3764 75804.6705 19100.3049 19201.3764
ENERGY: 2000 1.2241 1.1425 0.0443 0.0000 -24886.2088 4217.1604 0.0000 0.0000 0.0000 -20666.6374 0.0000 -20666.6374 -20666.6374 0.0000 19423.8013 19518.9257 75804.6705 19423.8013 19518.9257
TCL: Exiting due to exit command.
Info: NAMD 3.0.1 for Linux-x86_64-multicore
Info: Please visit http://www.ks.uiuc.edu/Research/namd/
Info: for updates, documentation, and support information.
Info: Please cite Phillips et al., J. Chem. Phys. 153:044130 (2020) doi:10.1063/5.0014475
Info: in all publications reporting results obtained with NAMD.
Info: Based on Charm++/Converse 80000 for multicore-linux-x86_64-gcc
Info: Built Mon Oct 14 11:11:06 CDT 2024 by dhardy on athine.ks.uiuc.edu
Info: 1 NAMD  3.0.1  Linux-x86_64-multicore  16    k015  z5358697
Info: Running on 16 processors, 1 nodes, 1 physical nodes.
Info: CPU topology information available.
Info: Charm++/Converse parallel runtime startup completed at 0.00929424 s
Info: 1043.45 MB of memory in use based on /proc/self/stat
Info: Configuration file is mobley_7017274_equil.namd
Info: Working in the current directory /srv/scratch/z5358697/prod_prep_9/7017274
TCL: Running 25000 steps at 30 kelvin.
TCL: Suspending until startup complete.
Info: SIMULATION PARAMETERS:
Info: TIMESTEP               2
Info: NUMBER OF STEPS        0
Info: STEPS PER CYCLE        10
Info: PERIODIC CELL BASIS 1  42.812 0 0
Info: PERIODIC CELL BASIS 2  0 42.118 0
Info: PERIODIC CELL BASIS 3  0 0 42.04
Info: PERIODIC CELL CENTER   0 0 0
Info: WRAPPING WATERS AROUND PERIODIC BOUNDARIES ON OUTPUT.
Info: WRAPPING ALL CLUSTERS AROUND PERIODIC BOUNDARIES ON OUTPUT.
Info: FIRST LDB TIMESTEP     50
Info: LAST LDB TIMESTEP     -1
Info: HOM BACKGROUND SCALING 1
Info: PME BACKGROUND SCALING 1
Info: MIN ATOMS PER PATCH    40
Info: EMPTY PATCH LOAD       40 ATOMS
Info: INITIAL TEMPERATURE    300
Info: CENTER OF MASS MOVING INITIALLY? NO
Info: DIELECTRIC             1
Info: EXCLUDE                SCALED ONE-FOUR
Info: 1-4 ELECTROSTATICS SCALED BY 0.833333
Info: MODIFIED 1-4 VDW PARAMETERS WILL BE USED
Info: DCD FILENAME           mobley_7017274_equil.dcd
Info: DCD FREQUENCY          5000
Info: DCD FIRST STEP         5000
Info: DCD FILE WILL CONTAIN UNIT CELL DATA
Info: XST FILENAME           mobley_7017274_equil.xst
Info: XST FREQUENCY          5000
Info: NO VELOCITY DCD OUTPUT
Info: NO FORCE DCD OUTPUT
Info: OUTPUT FILENAME        mobley_7017274_equil
Info: BINARY OUTPUT FILES WILL BE USED
Info: RESTART FILENAME       mobley_7017274_equil.restart
Info: RESTART FREQUENCY      5000
Info: BINARY RESTART FILES WILL BE USED
Info: CUTOFF                 9
Info: PAIRLIST DISTANCE      11
Info: PAIRLIST SHRINK RATE   0.01
Info: PAIRLIST GROW RATE     0.01
Info: PAIRLIST TRIGGER       0.3
Info: PAIRLISTS PER CYCLE    2
Info: PAIRLISTS ENABLED
Info: MARGIN                 8
Info: HYDROGEN GROUP CUTOFF  2.5
Info: PATCH DIMENSION        21.5
Info: ENERGY OUTPUT STEPS    5000
Info: ENERGY EVALUATION STEPS    5000
Info: OUTPUT ENERGY PRECISION 4
Info: CROSSTERM ENERGY INCLUDED IN DIHEDRAL
Info: TIMING OUTPUT STEPS    50000
Info: PRESSURE OUTPUT STEPS  5000
Info: LANGEVIN DYNAMICS ACTIVE
Info: LANGEVIN TEMPERATURE   30
Info: LANGEVIN USING BBK INTEGRATOR
Info: LANGEVIN DAMPING COEFFICIENT IS 1 INVERSE PS
Info: LANGEVIN DYNAMICS APPLIED TO HYDROGENS
Info: LANGEVIN PISTON PRESSURE CONTROL ACTIVE
Info:        TARGET PRESSURE IS 1.01325 BAR
Info:     OSCILLATION PERIOD IS 50 FS
Info:             DECAY TIME IS 25 FS
Info:     PISTON TEMPERATURE IS 300 K
Info:       PRESSURE CONTROL IS GROUP-BASED
Info:    INITIAL STRAIN RATE IS 0 0 0
Info:       CELL FLUCTUATION IS ISOTROPIC
Info: PARTICLE MESH EWALD (PME) ACTIVE
Info: PME TOLERANCE               1e-06
Info: PME EWALD COEFFICIENT       0.348832
Info: PME INTERPOLATION ORDER     4
Info: PME GRID DIMENSIONS         44 44 44
Info: PME MAXIMUM GRID SPACING    1
Info: FULL ELECTROSTATIC EVALUATION FREQUENCY      2
Info: USING VERLET I (r-RESPA) MTS SCHEME.
Info: C1 SPLITTING OF LONG RANGE ELECTROSTATICS
Info: PLACING ATOMS IN PATCHES BY HYDROGEN GROUPS
Info: RIGID BONDS TO HYDROGEN : ALL
Info:         ERROR TOLERANCE : 1e-08
Info:          MAX ITERATIONS : 100
Info: RIGID WATER USING SETTLE ALGORITHM
Info: RANDOM NUMBER SEED     1741386328
Info: USE HYDROGEN BONDS?    NO
Info: Using AMBER format force field!
Info: AMBER PARM FILE        mobley_7017274.prmtop
Info: COORDINATE PDB         mobley_7017274.pdb
Info: Exclusions will be read from PARM file!
Info: SCNB (VDW SCALING)     2
Info: USING ARITHMETIC MEAN TO COMBINE L-J SIGMA PARAMETERS
Info: BINARY COORDINATES     mobley_7017274_min.coor
Info: SUMMARY OF PARAMETERS:
Info: 4 BONDS
Info: 2 ANGLES
Info:   2 HARMONIC
Info:   0 COSINE-BASED
Info: 2 DIHEDRAL
Info: 0 IMPROPER
Info: 0 CROSSTERM
Info: 0 VDW
Info: 10 VDW_PAIRS
Info: 0 NBTHOLE_PAIRS
Info: STRUCTURE SUMMARY:
Info: 5469 ATOMS
Info: 5471 BONDS
Info: 42 ANGLES
Info: 74 DIHEDRALS
Info: 0 IMPROPERS
Info: 0 CROSSTERMS
Info: 5568 EXCLUSIONS
Info: 5455 RIGID BONDS
Info: 10952 DEGREES OF FREEDOM
Info: 1829 HYDROGEN GROUPS
Info: 3 ATOMS IN LARGEST HYDROGEN GROUP
Info: 1829 MIGRATION GROUPS
Info: 3 ATOMS IN LARGEST MIGRATION GROUP
Info: TOTAL MASS = 32877.3 amu
Info: TOTAL CHARGE = -0.000199988 e
Info: MASS DENSITY = 0.72021 g/cm^3
Info: ATOM DENSITY = 0.072146 atoms/A^3
Info: ADDED 0 IMPLICIT EXCLUSIONS
Info: NONBONDED TABLE R-SQUARED SPACING: 0.0625
Info: NONBONDED TABLE SIZE: 705 POINTS
Info: REMOVING COM VELOCITY -0.0225992 -0.0324829 0.03588
TCL: Running for 25000 steps
ETITLE: TS BOND ANGLE DIHED IMPRP ELECT VDW BOUNDARY MISC KINETIC TOTAL TEMP POTENTIAL TOTAL3 TEMPAVG PRESSURE GPRESSURE VOLUME PRESSAVG GPRESSAVG
ENERGY: 0 1.2241 1.1425 0.0443 0.0000 -24886.2087 4217.1604 0.0000 0.0000 3360.9383 -17305.6991 308.8570 -20666.6373 -17305.0462 308.8570 -122.5324 -77.1416 75804.6705 -122.5324 -77.1416
ENERGY: 5000 1.6302 1.7760 0.5325 0.0000 -26052.1043 4465.2420 0.0000 0.0000 330.2245 -21252.6991 30.3463 -21582.9235 -21251.9484 47.9774 -517.3427 -450.2417 54814.3365 0.2173 0.3100
ENERGY: 10000 1.1623 1.5500 0.9052 0.0000 -26169.4391 4563.0949 0.0000 0.0000 325.1296 -21277.5971 29.8781 -21602.7266 -21276.8247 30.1190 -30.2331 11.2428 54542.2276 3.0220 2.8427
ENERGY: 15000 0.9145 1.2605 0.5940 0.0000 -26195.9272 4553.7524 0.0000 0.0000 329.9471 -21309.4588 30.3208 -21639.4059 -21308.2743 29.9225 -116.3681 -49.4283 54235.8568 3.7573 3.5667
ENERGY: 20000 1.5402 1.6794 0.5339 0.0000 -26211.8269 4549.8696 0.0000 0.0000 325.3801 -21332.8238 29.9012 -21658.2039 -21331.8552 30.1609 -174.9961 -119.8740 54135.3514 6.5513 6.7985
ENERGY: 25000 1.4423 1.7133 1.0189 0.0000 -26239.9673 4559.4854 0.0000 0.0000 332.0656 -21344.2418 30.5155 -21676.3074 -21343.0902 30.0458 -163.6628 -98.9929 54134.6543 8.1972 8.2788
TCL: Running 25000 steps at 60 kelvin.
TCL: Setting parameter langevinTemp to 60
TCL: Running for 25000 steps
ETITLE: TS BOND ANGLE DIHED IMPRP ELECT VDW BOUNDARY MISC KINETIC TOTAL TEMP POTENTIAL TOTAL3 TEMPAVG PRESSURE GPRESSURE VOLUME PRESSAVG GPRESSAVG
ENERGY: 25000 1.4423 1.7133 1.0189 0.0000 -26239.9673 4559.4854 0.0000 0.0000 331.9045 -21344.4029 30.5007 -21676.3074 -21343.6274 30.5007 -159.7125 -98.9285 54134.6543 -159.7125 -98.9285
ENERGY: 30000 1.8296 2.5221 0.8344 0.0000 -25725.3447 4354.8390 0.0000 0.0000 654.8437 -20710.4759 60.1776 -21365.3195 -20708.8680 56.9312 -416.5715 -352.1372 54463.8960 2.5882 2.8158
ENERGY: 35000 2.2148 1.9779 1.3798 0.0000 -25985.6282 4587.7530 0.0000 0.0000 654.2187 -20738.0840 60.1201 -21392.3027 -20737.2275 60.1602 566.6925 620.5162 54337.9407 3.3996 3.4709
ENERGY: 40000 2.2678 2.6966 1.4513 0.0000 -25948.4397 4491.5985 0.0000 0.0000 648.9586 -20801.4668 59.6367 -21450.4254 -20799.6904 60.4905 27.3938 107.9730 54089.2430 2.0122 2.1285
ENERGY: 45000 1.4853 0.8392 3.0331 0.0000 -25970.4688 4484.7940 0.0000 0.0000 648.0508 -20832.2663 59.5533 -21480.3171 -20830.5367 60.0315 -83.0456 -41.4325 54283.9811 3.7905 3.7770
ENERGY: 50000 2.6314 2.1905 2.0620 0.0000 -25961.9002 4460.5177 0.0000 0.0000 665.9722 -20828.5263 61.2002 -21494.4986 -20827.3047 60.3198 -235.3001 -171.1056 54203.4008 4.2497 4.2570
TCL: Running 25000 steps at 90 kelvin.
TCL: Setting parameter langevinTemp to 90
TCL: Running for 25000 steps
ETITLE: TS BOND ANGLE DIHED IMPRP ELECT VDW BOUNDARY MISC KINETIC TOTAL TEMP POTENTIAL TOTAL3 TEMPAVG PRESSURE GPRESSURE VOLUME PRESSAVG GPRESSAVG
ENERGY: 50000 2.6314 2.1905 2.0620 0.0000 -25961.9002 4460.5177 0.0000 0.0000 665.6543 -20828.8443 61.1710 -21494.4986 -20827.4455 61.1710 -224.5129 -171.3888 54203.4008 -224.5129 -171.3888
ENERGY: 55000 2.2079 2.6009 1.7720 0.0000 -25655.8142 4486.7097 0.0000 0.0000 986.4845 -20176.0393 90.6541 -21162.5238 -20173.9194 86.4720 747.2774 775.8191 53733.1057 2.5123 2.4755
ENERGY: 60000 1.9184 3.7405 2.1318 0.0000 -25430.3729 4219.1182 0.0000 0.0000 1004.2958 -20199.1680 92.2908 -21203.4639 -20196.2234 90.5460 -566.6267 -519.3620 54117.1236 4.8779 4.9064
ENERGY: 65000 1.5365 3.1717 1.4006 0.0000 -25626.2943 4390.6487 0.0000 0.0000 1005.8102 -20223.7267 92.4300 -21229.5368 -20221.8231 90.5390 227.6727 287.0054 53580.4389 5.9382 5.9043
ENERGY: 70000 1.1601 2.7787 2.0114 0.0000 -25618.7399 4334.5792 0.0000 0.0000 962.4277 -20315.7828 88.4433 -21278.2105 -20313.3950 90.1471 -178.0366 -104.9879 53460.4134 7.4548 7.4727
ENERGY: 75000 1.6272 2.4318 1.3342 0.0000 -25842.2417 4513.5042 0.0000 0.0000 999.0121 -20324.3322 91.8053 -21323.3443 -20321.5131 90.2067 658.8270 709.1562 53125.8006 -1.7631 -1.7395
TCL: Running 25000 steps at 120 kelvin.
TCL: Setting parameter langevinTemp to 120
TCL: Running for 25000 steps
ETITLE: TS BOND ANGLE DIHED IMPRP ELECT VDW BOUNDARY MISC KINETIC TOTAL TEMP POTENTIAL TOTAL3 TEMPAVG PRESSURE GPRESSURE VOLUME PRESSAVG GPRESSAVG
ENERGY: 75000 1.6272 2.4318 1.3342 0.0000 -25842.2417 4513.5042 0.0000 0.0000 998.5182 -20324.8260 91.7599 -21323.3443 -20322.8680 91.7599 659.5549 709.3249 53125.8006 659.5549 709.3249
ENERGY: 80000 1.6074 3.1629 1.9438 0.0000 -25216.3065 4250.3895 0.0000 0.0000 1271.8394 -19687.3636 116.8770 -20959.2030 -19684.1789 117.0600 91.0343 149.0739 53605.8996 0.1249 0.6544
ENERGY: 85000 1.6947 3.6123 3.0431 0.0000 -25172.5496 4175.6598 0.0000 0.0000 1300.8465 -19687.6933 119.5427 -20988.5398 -19682.7624 119.8534 -290.9162 -217.1434 53555.6249 4.1439 4.3145
ENERGY: 90000 2.8638 2.6938 2.8891 0.0000 -25194.1651 4175.5664 0.0000 0.0000 1346.1675 -19663.9846 123.7075 -21010.1521 -19662.3390 119.9690 -118.2542 -54.0225 53265.5718 4.2907 4.4543
ENERGY: 95000 3.2047 1.9864 3.3333 0.0000 -25341.8190 4280.0882 0.0000 0.0000 1344.5849 -19708.6215 123.5621 -21053.2064 -19705.2394 121.0928 178.2477 213.5035 53061.6945 5.0346 4.7409
ENERGY: 100000 3.6958 4.7466 2.9962 0.0000 -25359.3847 4279.4880 0.0000 0.0000 1304.6494 -19763.8086 119.8922 -21068.4580 -19761.4914 120.2716 209.6005 228.7239 52993.7570 1.4486 1.6072
TCL: Running 25000 steps at 150 kelvin.
TCL: Setting parameter langevinTemp to 150
TCL: Running for 25000 steps
ETITLE: TS BOND ANGLE DIHED IMPRP ELECT VDW BOUNDARY MISC KINETIC TOTAL TEMP POTENTIAL TOTAL3 TEMPAVG PRESSURE GPRESSURE VOLUME PRESSAVG GPRESSAVG
ENERGY: 100000 3.6958 4.7466 2.9962 0.0000 -25359.3847 4279.4880 0.0000 0.0000 1304.0015 -19764.4566 119.8326 -21068.4580 -19761.7338 119.8326 172.0214 228.0383 52993.7570 172.0214 228.0383
ENERGY: 105000 2.7441 3.8344 1.6392 0.0000 -24822.4170 4149.9585 0.0000 0.0000 1635.8118 -19028.4291 150.3247 -20664.2409 -19025.2437 147.6598 314.0394 384.9872 53244.0465 6.9682 7.0919
ENERGY: 110000 4.0297 4.8017 4.9216 0.0000 -24782.4186 4059.4331 0.0000 0.0000 1618.7934 -19090.4392 148.7608 -20709.2326 -19086.6836 149.7720 -58.2898 -42.0493 53271.8051 4.7548 4.8634
ENERGY: 115000 3.5803 3.8674 1.6105 0.0000 -25086.9287 4319.5195 0.0000 0.0000 1629.6268 -19128.7242 149.7563 -20758.3510 -19126.1349 151.3191 949.8198 1020.9822 53168.6353 0.7902 1.0194
ENERGY: 120000 6.7461 3.8380 7.8980 0.0000 -24839.0166 4063.3836 0.0000 0.0000 1625.3339 -19131.8169 149.3618 -20757.1508 -19127.8031 149.8205 -348.5172 -306.7122 53459.8906 4.7493 4.7329
ENERGY: 125000 3.8890 3.0156 2.4985 0.0000 -24972.0542 4214.3048 0.0000 0.0000 1654.0656 -19094.2809 152.0021 -20748.3464 -19089.7117 150.6825 350.7699 421.8199 53560.9855 -2.0188 -1.4382
TCL: Running 50000 steps at 180 kelvin.
TCL: Setting parameter langevinTemp to 180
TCL: Running for 50000 steps
ETITLE: TS BOND ANGLE DIHED IMPRP ELECT VDW BOUNDARY MISC KINETIC TOTAL TEMP POTENTIAL TOTAL3 TEMPAVG PRESSURE GPRESSURE VOLUME PRESSAVG GPRESSAVG
ENERGY: 125000 3.8890 3.0156 2.4985 0.0000 -24972.0542 4214.3048 0.0000 0.0000 1653.2627 -19095.0837 151.9283 -20748.3464 -19092.0838 151.9283 368.5325 422.0520 53560.9855 368.5325 422.0520
ENERGY: 135000 4.1991 3.6189 3.1012 0.0000 -24239.9656 3933.8390 0.0000 0.0000 1946.6652 -18348.5422 178.8909 -20295.2074 -18344.1682 180.4941 16.9684 36.2320 53911.2722 3.1613 3.0445
ENERGY: 145000 2.7561 3.7983 4.1756 0.0000 -24270.4242 3937.6049 0.0000 0.0000 1968.9399 -18353.1494 180.9378 -20322.0894 -18347.4923 179.8035 207.5809 252.3422 53334.2592 5.4492 5.0185
ENERGY: 155000 5.0589 3.2230 3.0686 0.0000 -24229.1202 3921.0048 0.0000 0.0000 1961.1717 -18335.5933 180.2240 -20296.7650 -18330.8462 180.7217 9.8109 92.7561 53595.2847 3.4894 3.4290
ENERGY: 165000 3.6796 6.2885 3.5849 0.0000 -24078.1917 3726.9139 0.0000 0.0000 1927.1820 -18410.5428 177.1005 -20337.7248 -18406.5048 180.6485 -903.2658 -821.3326 53480.2077 2.4859 2.6398
ENERGY: 175000 3.1684 4.7340 1.8833 0.0000 -24376.0594 3977.0692 0.0000 0.0000 1977.3648 -18411.8398 181.7121 -20389.2046 -18407.1178 179.9239 131.8717 207.7749 53601.6707 0.8548 0.9089
TCL: Running 50000 steps at 210 kelvin.
TCL: Setting parameter langevinTemp to 210
TCL: Running for 50000 steps
ETITLE: TS BOND ANGLE DIHED IMPRP ELECT VDW BOUNDARY MISC KINETIC TOTAL TEMP POTENTIAL TOTAL3 TEMPAVG PRESSURE GPRESSURE VOLUME PRESSAVG GPRESSAVG
ENERGY: 175000 3.1684 4.7340 1.8833 0.0000 -24376.0594 3977.0692 0.0000 0.0000 1976.3993 -18412.8052 181.6233 -20389.2046 -18409.5857 181.6233 154.7204 208.0582 53601.6707 154.7204 208.0582
ENERGY: 185000 3.1742 3.8512 4.1980 0.0000 -23008.7137 3486.1164 0.0000 0.0000 2273.6773 -17237.6966 208.9420 -19511.3739 -17231.9699 209.8817 -378.4600 -283.0111 53724.4194 0.8974 1.0033
ENERGY: 195000 2.3422 5.4906 2.4152 0.0000 -22935.2815 3487.5573 0.0000 0.0000 2296.4503 -17141.0258 211.0348 -19437.4762 -17134.2983 209.0456 55.1079 105.1566 53308.7294 -0.0054 -0.2857
ENERGY: 205000 2.9086 4.7728 3.0110 0.0000 -22975.8295 3528.1431 0.0000 0.0000 2338.7952 -17098.1989 214.9261 -19436.9941 -17092.6114 210.8724 59.4908 136.4694 53519.8396 1.2053 1.2782
ENERGY: 215000 2.0459 2.6759 5.3940 0.0000 -22945.4643 3503.0485 0.0000 0.0000 2322.9534 -17109.3465 213.4703 -19432.2999 -17105.2006 208.9943 -144.9608 -57.2206 53735.4118 2.0410 1.8684
ENERGY: 225000 4.7869 7.7667 4.4526 0.0000 -22822.8006 3360.2767 0.0000 0.0000 2252.3095 -17193.2081 206.9784 -19445.5176 -17187.2140 210.4206 -652.7674 -566.5767 53319.1402 0.5224 0.3495
TCL: Running 50000 steps at 240 kelvin.
TCL: Setting parameter langevinTemp to 240
TCL: Running for 50000 steps
ETITLE: TS BOND ANGLE DIHED IMPRP ELECT VDW BOUNDARY MISC KINETIC TOTAL TEMP POTENTIAL TOTAL3 TEMPAVG PRESSURE GPRESSURE VOLUME PRESSAVG GPRESSAVG
ENERGY: 225000 4.7869 7.7667 4.4526 0.0000 -22822.8006 3360.2767 0.0000 0.0000 2251.1838 -17194.3338 206.8750 -19445.5176 -17190.1779 206.8750 -646.1051 -566.8802 53319.1402 -646.1051 -566.8802
ENERGY: 235000 6.1375 3.4813 5.8464 0.0000 -21637.9851 3070.6289 0.0000 0.0000 2600.8152 -15951.0758 239.0047 -18551.8910 -15946.1988 240.3409 -236.0526 -199.7958 53675.2672 -1.2201 -2.1808
ENERGY: 245000 3.8829 6.3333 4.3759 0.0000 -21849.2395 3199.6636 0.0000 0.0000 2639.3127 -15995.6711 242.5425 -18634.9838 -15989.5725 241.4774 -66.2566 -3.5685 54141.5016 1.4221 1.4785
ENERGY: 255000 6.7083 6.1086 6.2856 0.0000 -21919.9393 3219.8414 0.0000 0.0000 2601.3945 -16079.6009 239.0579 -18680.9954 -16073.5824 239.3238 -3.9509 46.4756 53894.7747 -2.8358 -3.1516
ENERGY: 265000 3.4002 2.2950 5.7747 0.0000 -21819.5151 3142.8388 0.0000 0.0000 2627.7871 -16037.4194 241.4833 -18665.2065 -16031.2482 239.9855 -155.5032 -47.9915 53654.6899 2.4004 2.3299
ENERGY: 275000 8.7977 7.5676 3.0342 0.0000 -21848.7953 3132.5966 0.0000 0.0000 2543.7748 -16153.0245 233.7629 -18696.7993 -16144.8678 237.5702 -446.1515 -356.9163 53590.2868 3.1084 2.7918
TCL: Running 50000 steps at 270 kelvin.
TCL: Setting parameter langevinTemp to 270
TCL: Running for 50000 steps
ETITLE: TS BOND ANGLE DIHED IMPRP ELECT VDW BOUNDARY MISC KINETIC TOTAL TEMP POTENTIAL TOTAL3 TEMPAVG PRESSURE GPRESSURE VOLUME PRESSAVG GPRESSAVG
ENERGY: 275000 8.7977 7.5676 3.0342 0.0000 -21848.7953 3132.5966 0.0000 0.0000 2542.4485 -16154.3508 233.6410 -18696.7993 -16149.9986 233.6410 -447.1548 -355.7051 53590.2868 -447.1548 -355.7051
ENERGY: 285000 4.4494 4.7763 3.6960 0.0000 -20938.4977 2984.2472 0.0000 0.0000 2901.9095 -15039.4193 266.6741 -17941.3288 -15032.4153 268.0571 -55.0986 12.7259 55358.7987 0.0080 0.1627
ENERGY: 295000 4.5265 3.5070 5.4393 0.0000 -20875.1106 3052.3631 0.0000 0.0000 2941.5050 -14867.7698 270.3128 -17809.2747 -14864.7279 271.6022 920.2636 986.5475 54387.5716 0.2847 0.4472
ENERGY: 305000 7.1229 6.5130 4.1704 0.0000 -20719.8643 2941.4196 0.0000 0.0000 2939.3533 -14821.2851 270.1150 -17760.6384 -14814.7956 271.8630 252.8493 379.4927 55033.7072 3.0117 3.4295
ENERGY: 315000 4.5573 6.2262 6.1030 0.0000 -20929.0759 2961.5941 0.0000 0.0000 2889.4845 -15061.1109 265.5323 -17950.5954 -15053.5744 269.2299 512.1193 615.8931 53826.5419 4.3198 5.0251
ENERGY: 325000 7.8718 6.1215 5.0167 0.0000 -20684.0592 2876.5634 0.0000 0.0000 2941.8328 -14846.6530 270.3429 -17788.4858 -14839.2231 268.3734 -54.7489 59.9101 54983.9040 0.9955 0.7287
TCL: Running 1000000 steps at 300 kelvin.
TCL: Setting parameter langevinTemp to 300
TCL: Running for 1000000 steps
ETITLE: TS BOND ANGLE DIHED IMPRP ELECT VDW BOUNDARY MISC KINETIC TOTAL TEMP POTENTIAL TOTAL3 TEMPAVG PRESSURE GPRESSURE VOLUME PRESSAVG GPRESSAVG
ENERGY: 325000 7.8718 6.1215 5.0167 0.0000 -20684.0592 2876.5634 0.0000 0.0000 2940.3491 -14848.1367 270.2065 -17788.4858 -14843.4921 270.2065 -35.3395 61.0219 54983.9040 -35.3395 61.0219
ENERGY: 525000 6.1306 6.1854 6.6322 0.0000 -19847.3814 2764.6475 0.0000 0.0000 3299.3952 -13764.3905 303.2015 -17063.7857 -13757.1842 301.6735 682.6761 745.4922 56105.4614 2.2328 2.6064
ENERGY: 725000 4.8823 4.7399 6.2661 0.0000 -19994.5693 2727.9330 0.0000 0.0000 3312.9013 -13937.8468 304.4426 -17250.7481 -13930.3112 301.2184 258.5428 360.0382 55606.5044 1.6104 1.7209
ENERGY: 925000 4.7627 5.4846 4.2191 0.0000 -19901.1610 2743.0565 0.0000 0.0000 3217.5998 -13926.0383 295.6848 -17143.6381 -13917.8476 301.2502 110.9162 184.1687 56796.9084 1.7657 2.1384
ENERGY: 1125000 5.9062 7.2149 3.2345 0.0000 -19650.8958 2622.1486 0.0000 0.0000 3282.9353 -13729.4564 301.6889 -17012.3917 -13725.9644 301.4059 114.7328 159.0695 56509.0099 0.8965 1.0934
ENERGY: 1325000 2.4347 9.1484 6.8472 0.0000 -19591.8027 2521.2166 0.0000 0.0000 3268.8380 -13783.3179 300.3934 -17052.1558 -13774.3395 301.2995 -629.4179 -558.7707 56886.2847 0.4611 1.0612
TCL: Exiting due to exit command.
