Info: SIMULATION PARAMETERS:
Info: TIMESTEP               2
Info: NUMBER OF STEPS        0
Info: STEPS PER CYCLE        10
Info: PERIODIC CELL BASIS 1  39.546 0 0
Info: PERIODIC CELL BASIS 2  0 39.115 0
Info: PERIODIC CELL BASIS 3  0 0 39.271
Info: PERIODIC CELL CENTER   0 0 0
Info: WRAPPING WATERS AROUND PERIODIC BOUNDARIES ON OUTPUT.
Info: WRAPPING ALL CLUSTERS AROUND PERIODIC BOUNDARIES ON OUTPUT.
Info: FIRST LDB TIMESTEP     50
Info: LAST LDB TIMESTEP     -1
Info: HOM BACKGROUND SCALING 1
Info: PME BACKGROUND SCALING 1
Info: MIN ATOMS PER PATCH    40
Info: EMPTY PATCH LOAD       40 ATOMS
Info: INITIAL TEMPERATURE    300
Info: CENTER OF MASS MOVING INITIALLY? NO
Info: DIELECTRIC             1
Info: EXCLUDE                SCALED ONE-FOUR
Info: 1-4 ELECTROSTATICS SCALED BY 0.833333
Info: MODIFIED 1-4 VDW PARAMETERS WILL BE USED
Info: DCD FILENAME           mobley_8048190_min.dcd
Info: DCD FREQUENCY          5000
Info: DCD FIRST STEP         5000
Info: DCD FILE WILL CONTAIN UNIT CELL DATA
Info: XST FILENAME           mobley_8048190_min.xst
Info: XST FREQUENCY          5000
Info: NO VELOCITY DCD OUTPUT
Info: NO FORCE DCD OUTPUT
Info: OUTPUT FILENAME        mobley_8048190_min
Info: BINARY OUTPUT FILES WILL BE USED
Info: RESTART FILENAME       mobley_8048190_min.restart
Info: RESTART FREQUENCY      5000
Info: BINARY RESTART FILES WILL BE USED
Info: CUTOFF                 9
Info: PAIRLIST DISTANCE      11
Info: PAIRLIST SHRINK RATE   0.01
Info: PAIRLIST GROW RATE     0.01
Info: PAIRLIST TRIGGER       0.3
Info: PAIRLISTS PER CYCLE    2
Info: PAIRLISTS ENABLED
Info: MARGIN                 8
Info: HYDROGEN GROUP CUTOFF  2.5
Info: PATCH DIMENSION        21.5
Info: ENERGY OUTPUT STEPS    5000
Info: ENERGY EVALUATION STEPS    5000
Info: OUTPUT ENERGY PRECISION 4
Info: CROSSTERM ENERGY INCLUDED IN DIHEDRAL
Info: TIMING OUTPUT STEPS    50000
Info: PRESSURE OUTPUT STEPS  5000
Info: LANGEVIN DYNAMICS ACTIVE
Info: LANGEVIN TEMPERATURE   300
Info: LANGEVIN USING BBK INTEGRATOR
Info: LANGEVIN DAMPING COEFFICIENT IS 1 INVERSE PS
Info: LANGEVIN DYNAMICS APPLIED TO HYDROGENS
Info: LANGEVIN PISTON PRESSURE CONTROL ACTIVE
Info:        TARGET PRESSURE IS 1.01325 BAR
Info:     OSCILLATION PERIOD IS 50 FS
Info:             DECAY TIME IS 25 FS
Info:     PISTON TEMPERATURE IS 300 K
Info:       PRESSURE CONTROL IS GROUP-BASED
Info:    INITIAL STRAIN RATE IS 0 0 0
Info:       CELL FLUCTUATION IS ISOTROPIC
Info: PARTICLE MESH EWALD (PME) ACTIVE
Info: PME TOLERANCE               1e-06
Info: PME EWALD COEFFICIENT       0.348832
Info: PME INTERPOLATION ORDER     4
Info: PME GRID DIMENSIONS         40 40 40
Info: PME MAXIMUM GRID SPACING    1
Info: FULL ELECTROSTATIC EVALUATION FREQUENCY      2
Info: USING VERLET I (r-RESPA) MTS SCHEME.
Info: C1 SPLITTING OF LONG RANGE ELECTROSTATICS
Info: PLACING ATOMS IN PATCHES BY HYDROGEN GROUPS
Info: RIGID BONDS TO HYDROGEN : ALL
Info:         ERROR TOLERANCE : 1e-08
Info:          MAX ITERATIONS : 100
Info: RIGID WATER USING SETTLE ALGORITHM
Info: RANDOM NUMBER SEED     1741396095
Info: USE HYDROGEN BONDS?    NO
Info: Using AMBER format force field!
Info: AMBER PARM FILE        mobley_8048190.prmtop
Info: COORDINATE PDB         mobley_8048190.pdb
Info: Exclusions will be read from PARM file!
Info: SCNB (VDW SCALING)     2
Info: USING ARITHMETIC MEAN TO COMBINE L-J SIGMA PARAMETERS
Info: SUMMARY OF PARAMETERS:
Info: 7 BONDS
Info: 7 ANGLES
Info:   7 HARMONIC
Info:   0 COSINE-BASED
Info: 7 DIHEDRAL
Info: 0 IMPROPER
Info: 0 CROSSTERM
Info: 0 VDW
Info: 36 VDW_PAIRS
Info: 0 NBTHOLE_PAIRS
Info: STRUCTURE SUMMARY:
Info: 4293 ATOMS
Info: 4292 BONDS
Info: 12 ANGLES
Info: 17 DIHEDRALS
Info: 0 IMPROPERS
Info: 0 CROSSTERMS
Info: 4314 EXCLUSIONS
Info: 4289 RIGID BONDS
Info: 8590 DEGREES OF FREEDOM
Info: 1432 HYDROGEN GROUPS
Info: 4 ATOMS IN LARGEST HYDROGEN GROUP
Info: 1432 MIGRATION GROUPS
Info: 4 ATOMS IN LARGEST MIGRATION GROUP
Info: TOTAL MASS = 25785.9 amu
Info: TOTAL CHARGE = -1.49012e-08 e
Info: MASS DENSITY = 0.704894 g/cm^3
Info: ATOM DENSITY = 0.0706713 atoms/A^3
Info: ADDED 0 IMPLICIT EXCLUSIONS
Info: NONBONDED TABLE R-SQUARED SPACING: 0.0625
Info: NONBONDED TABLE SIZE: 705 POINTS
Info: REMOVING COM VELOCITY 0.0174863 0.128048 0.066204
TCL: Minimizing for 2000 steps
ETITLE: TS BOND ANGLE DIHED IMPRP ELECT VDW BOUNDARY MISC KINETIC TOTAL TEMP POTENTIAL TOTAL3 TEMPAVG PRESSURE GPRESSURE VOLUME PRESSAVG GPRESSAVG
ENERGY: 0 0.3339 1.0396 27.0047 0.0000 -13325.8636 1541.2294 0.0000 0.0000 0.0000 -11756.2560 0.0000 -11756.2560 -11756.2560 0.0000 10871.1981 -15219.0730 60746.0239 10871.1981 -15219.0730
ENERGY: 400 1.9881 2.9140 26.7466 0.0000 -17908.3707 2592.1465 0.0000 0.0000 0.0000 -15284.5755 0.0000 -15284.5755 -15284.5755 0.0000 15173.5530 15258.4693 60746.0239 15173.5530 15258.4693
ENERGY: 800 12.1114 2.9124 26.2634 0.0000 -18911.5950 3063.9342 0.0000 0.0000 0.0000 -15806.3736 0.0000 -15806.3736 -15806.3736 0.0000 17710.7508 17788.9040 60746.0239 17710.7508 17788.9040
ENERGY: 1200 0.2202 1.0772 25.7718 0.0000 -19407.9579 3296.9372 0.0000 0.0000 0.0000 -16083.9515 0.0000 -16083.9515 -16083.9515 0.0000 18996.4229 19063.5541 60746.0239 18996.4229 19063.5541
ENERGY: 1600 0.6422 1.2443 25.5833 0.0000 -19580.9121 3353.4468 0.0000 0.0000 0.0000 -16199.9955 0.0000 -16199.9955 -16199.9955 0.0000 19270.6506 19345.9131 60746.0239 19270.6506 19345.9131
ENERGY: 2000 0.4280 1.5193 25.4191 0.0000 -19707.0179 3410.5087 0.0000 0.0000 0.0000 -16269.1428 0.0000 -16269.1428 -16269.1428 0.0000 19570.3571 19627.0710 60746.0239 19570.3571 19627.0710
TCL: Exiting due to exit command.
Info: NAMD 3.0.1 for Linux-x86_64-multicore
Info: Please visit http://www.ks.uiuc.edu/Research/namd/
Info: for updates, documentation, and support information.
Info: Please cite Phillips et al., J. Chem. Phys. 153:044130 (2020) doi:10.1063/5.0014475
Info: in all publications reporting results obtained with NAMD.
Info: Based on Charm++/Converse 80000 for multicore-linux-x86_64-gcc
Info: Built Mon Oct 14 11:11:06 CDT 2024 by dhardy on athine.ks.uiuc.edu
Info: 1 NAMD  3.0.1  Linux-x86_64-multicore  16    k026  z5358697
Info: Running on 16 processors, 1 nodes, 1 physical nodes.
Info: CPU topology information available.
Info: Charm++/Converse parallel runtime startup completed at 0.00743335 s
Info: 1043.46 MB of memory in use based on /proc/self/stat
Info: Configuration file is mobley_8048190_equil.namd
Info: Working in the current directory /srv/scratch/z5358697/prod_prep_10/8048190
TCL: Running 25000 steps at 30 kelvin.
TCL: Suspending until startup complete.
Info: SIMULATION PARAMETERS:
Info: TIMESTEP               2
Info: NUMBER OF STEPS        0
Info: STEPS PER CYCLE        10
Info: PERIODIC CELL BASIS 1  39.546 0 0
Info: PERIODIC CELL BASIS 2  0 39.115 0
Info: PERIODIC CELL BASIS 3  0 0 39.271
Info: PERIODIC CELL CENTER   0 0 0
Info: WRAPPING WATERS AROUND PERIODIC BOUNDARIES ON OUTPUT.
Info: WRAPPING ALL CLUSTERS AROUND PERIODIC BOUNDARIES ON OUTPUT.
Info: FIRST LDB TIMESTEP     50
Info: LAST LDB TIMESTEP     -1
Info: HOM BACKGROUND SCALING 1
Info: PME BACKGROUND SCALING 1
Info: MIN ATOMS PER PATCH    40
Info: EMPTY PATCH LOAD       40 ATOMS
Info: INITIAL TEMPERATURE    300
Info: CENTER OF MASS MOVING INITIALLY? NO
Info: DIELECTRIC             1
Info: EXCLUDE                SCALED ONE-FOUR
Info: 1-4 ELECTROSTATICS SCALED BY 0.833333
Info: MODIFIED 1-4 VDW PARAMETERS WILL BE USED
Info: DCD FILENAME           mobley_8048190_equil.dcd
Info: DCD FREQUENCY          5000
Info: DCD FIRST STEP         5000
Info: DCD FILE WILL CONTAIN UNIT CELL DATA
Info: XST FILENAME           mobley_8048190_equil.xst
Info: XST FREQUENCY          5000
Info: NO VELOCITY DCD OUTPUT
Info: NO FORCE DCD OUTPUT
Info: OUTPUT FILENAME        mobley_8048190_equil
Info: BINARY OUTPUT FILES WILL BE USED
Info: RESTART FILENAME       mobley_8048190_equil.restart
Info: RESTART FREQUENCY      5000
Info: BINARY RESTART FILES WILL BE USED
Info: CUTOFF                 9
Info: PAIRLIST DISTANCE      11
Info: PAIRLIST SHRINK RATE   0.01
Info: PAIRLIST GROW RATE     0.01
Info: PAIRLIST TRIGGER       0.3
Info: PAIRLISTS PER CYCLE    2
Info: PAIRLISTS ENABLED
Info: MARGIN                 8
Info: HYDROGEN GROUP CUTOFF  2.5
Info: PATCH DIMENSION        21.5
Info: ENERGY OUTPUT STEPS    5000
Info: ENERGY EVALUATION STEPS    5000
Info: OUTPUT ENERGY PRECISION 4
Info: CROSSTERM ENERGY INCLUDED IN DIHEDRAL
Info: TIMING OUTPUT STEPS    50000
Info: PRESSURE OUTPUT STEPS  5000
Info: LANGEVIN DYNAMICS ACTIVE
Info: LANGEVIN TEMPERATURE   30
Info: LANGEVIN USING BBK INTEGRATOR
Info: LANGEVIN DAMPING COEFFICIENT IS 1 INVERSE PS
Info: LANGEVIN DYNAMICS APPLIED TO HYDROGENS
Info: LANGEVIN PISTON PRESSURE CONTROL ACTIVE
Info:        TARGET PRESSURE IS 1.01325 BAR
Info:     OSCILLATION PERIOD IS 50 FS
Info:             DECAY TIME IS 25 FS
Info:     PISTON TEMPERATURE IS 300 K
Info:       PRESSURE CONTROL IS GROUP-BASED
Info:    INITIAL STRAIN RATE IS 0 0 0
Info:       CELL FLUCTUATION IS ISOTROPIC
Info: PARTICLE MESH EWALD (PME) ACTIVE
Info: PME TOLERANCE               1e-06
Info: PME EWALD COEFFICIENT       0.348832
Info: PME INTERPOLATION ORDER     4
Info: PME GRID DIMENSIONS         40 40 40
Info: PME MAXIMUM GRID SPACING    1
Info: FULL ELECTROSTATIC EVALUATION FREQUENCY      2
Info: USING VERLET I (r-RESPA) MTS SCHEME.
Info: C1 SPLITTING OF LONG RANGE ELECTROSTATICS
Info: PLACING ATOMS IN PATCHES BY HYDROGEN GROUPS
Info: RIGID BONDS TO HYDROGEN : ALL
Info:         ERROR TOLERANCE : 1e-08
Info:          MAX ITERATIONS : 100
Info: RIGID WATER USING SETTLE ALGORITHM
Info: RANDOM NUMBER SEED     1741396110
Info: USE HYDROGEN BONDS?    NO
Info: Using AMBER format force field!
Info: AMBER PARM FILE        mobley_8048190.prmtop
Info: COORDINATE PDB         mobley_8048190.pdb
Info: Exclusions will be read from PARM file!
Info: SCNB (VDW SCALING)     2
Info: USING ARITHMETIC MEAN TO COMBINE L-J SIGMA PARAMETERS
Info: BINARY COORDINATES     mobley_8048190_min.coor
Info: SUMMARY OF PARAMETERS:
Info: 7 BONDS
Info: 7 ANGLES
Info:   7 HARMONIC
Info:   0 COSINE-BASED
Info: 7 DIHEDRAL
Info: 0 IMPROPER
Info: 0 CROSSTERM
Info: 0 VDW
Info: 36 VDW_PAIRS
Info: 0 NBTHOLE_PAIRS
Info: STRUCTURE SUMMARY:
Info: 4293 ATOMS
Info: 4292 BONDS
Info: 12 ANGLES
Info: 17 DIHEDRALS
Info: 0 IMPROPERS
Info: 0 CROSSTERMS
Info: 4314 EXCLUSIONS
Info: 4289 RIGID BONDS
Info: 8590 DEGREES OF FREEDOM
Info: 1432 HYDROGEN GROUPS
Info: 4 ATOMS IN LARGEST HYDROGEN GROUP
Info: 1432 MIGRATION GROUPS
Info: 4 ATOMS IN LARGEST MIGRATION GROUP
Info: TOTAL MASS = 25785.9 amu
Info: TOTAL CHARGE = -1.49012e-08 e
Info: MASS DENSITY = 0.704894 g/cm^3
Info: ATOM DENSITY = 0.0706713 atoms/A^3
Info: ADDED 0 IMPLICIT EXCLUSIONS
Info: NONBONDED TABLE R-SQUARED SPACING: 0.0625
Info: NONBONDED TABLE SIZE: 705 POINTS
Info: REMOVING COM VELOCITY 0.0294566 0.154714 0.1005
TCL: Running for 25000 steps
ETITLE: TS BOND ANGLE DIHED IMPRP ELECT VDW BOUNDARY MISC KINETIC TOTAL TEMP POTENTIAL TOTAL3 TEMPAVG PRESSURE GPRESSURE VOLUME PRESSAVG GPRESSAVG
ENERGY: 0 0.4280 1.5193 25.4191 0.0000 -19707.0179 3410.5087 0.0000 0.0000 2591.6735 -13677.4692 303.6530 -16269.1428 -13676.9211 303.6530 220.6215 261.6175 60746.0239 220.6215 261.6175
ENERGY: 5000 0.3484 1.5394 26.0454 0.0000 -20561.2170 3521.5973 0.0000 0.0000 262.0506 -16749.6358 30.7031 -17011.6864 -16748.8536 47.7247 -356.9088 -315.5184 43060.8448 -2.5746 -2.5705
ENERGY: 10000 0.4536 1.7118 25.6596 0.0000 -20662.0965 3584.4118 0.0000 0.0000 256.2563 -16793.6034 30.0242 -17049.8598 -16793.0235 30.2488 38.7814 74.6042 42680.7700 4.5498 4.5217
ENERGY: 15000 0.2293 2.3059 25.1467 0.0000 -20735.9595 3633.2345 0.0000 0.0000 253.7712 -16821.2719 29.7331 -17075.0431 -16820.6039 30.1851 228.6255 272.5625 42660.2409 5.2185 5.1704
ENERGY: 20000 0.4182 1.6693 25.6539 0.0000 -20672.8627 3572.2971 0.0000 0.0000 254.6955 -16818.1286 29.8414 -17072.8241 -16817.4083 30.1039 -192.6513 -137.8177 42898.8057 5.8205 5.8700
ENERGY: 25000 0.7111 1.5767 26.1279 0.0000 -20606.4766 3490.8034 0.0000 0.0000 254.0283 -16833.2293 29.7632 -17087.2575 -16832.4411 29.9618 -706.9197 -660.0863 43098.5046 1.5924 1.7562
TCL: Running 25000 steps at 60 kelvin.
TCL: Setting parameter langevinTemp to 60
TCL: Running for 25000 steps
ETITLE: TS BOND ANGLE DIHED IMPRP ELECT VDW BOUNDARY MISC KINETIC TOTAL TEMP POTENTIAL TOTAL3 TEMPAVG PRESSURE GPRESSURE VOLUME PRESSAVG GPRESSAVG
ENERGY: 25000 0.7111 1.5767 26.1279 0.0000 -20606.4766 3490.8034 0.0000 0.0000 253.8999 -16833.3577 29.7481 -17087.2575 -16832.8212 29.7481 -713.0352 -660.1356 43098.5046 -713.0352 -660.1356
ENERGY: 30000 0.6102 1.3268 26.8364 0.0000 -20508.9749 3611.0959 0.0000 0.0000 518.3784 -16350.7271 60.7357 -16869.1054 -16349.9335 56.8455 673.5437 733.6618 42700.1370 5.5087 5.3648
ENERGY: 35000 0.6254 2.0615 25.5622 0.0000 -20426.5511 3540.8841 0.0000 0.0000 516.3504 -16341.0675 60.4981 -16857.4179 -16339.6527 60.6805 213.5761 295.3745 42987.6928 2.9293 2.9119
ENERGY: 40000 0.2242 2.0966 26.4449 0.0000 -20179.1428 3242.1652 0.0000 0.0000 508.9963 -16399.2155 59.6365 -16908.2117 -16398.2854 60.1390 -1525.6943 -1475.6838 43081.7383 4.2990 4.1500
ENERGY: 45000 0.4463 2.3101 26.4567 0.0000 -20570.5352 3630.4957 0.0000 0.0000 496.2126 -16414.6138 58.1387 -16910.8264 -16413.4756 60.0319 779.1789 854.9968 42233.4351 0.6981 0.7420
ENERGY: 50000 0.3960 1.2983 26.2267 0.0000 -20452.9841 3496.9662 0.0000 0.0000 519.6241 -16408.4728 60.8817 -16928.0969 -16406.9267 60.6207 -43.0068 18.2094 42379.2667 6.4368 6.4619
TCL: Running 25000 steps at 90 kelvin.
TCL: Setting parameter langevinTemp to 90
TCL: Running for 25000 steps
ETITLE: TS BOND ANGLE DIHED IMPRP ELECT VDW BOUNDARY MISC KINETIC TOTAL TEMP POTENTIAL TOTAL3 TEMPAVG PRESSURE GPRESSURE VOLUME PRESSAVG GPRESSAVG
ENERGY: 50000 0.3960 1.2983 26.2267 0.0000 -20452.9841 3496.9662 0.0000 0.0000 519.3587 -16408.7382 60.8506 -16928.0969 -16407.6611 60.8506 -41.0555 18.2213 42379.2667 -41.0555 18.2213
ENERGY: 55000 0.9003 1.2757 25.8955 0.0000 -20069.8471 3370.8257 0.0000 0.0000 767.6418 -15903.3081 89.9406 -16670.9500 -15900.8440 86.9574 -158.9276 -109.5064 42686.2822 6.0338 5.5525
ENERGY: 60000 0.7412 2.2502 26.0561 0.0000 -20220.4200 3468.2350 0.0000 0.0000 773.2371 -15949.9004 90.5962 -16723.1375 -15948.1397 90.6492 340.4800 379.5385 42459.6836 0.8652 0.9449
ENERGY: 65000 0.9716 2.6379 26.1407 0.0000 -20182.7817 3431.0672 0.0000 0.0000 766.4510 -15955.5133 89.8011 -16721.9643 -15954.1460 90.6483 41.0260 137.3376 42655.3582 2.3040 2.1789
ENERGY: 70000 1.0969 2.3504 25.1643 0.0000 -20334.0907 3541.6847 0.0000 0.0000 777.5484 -15986.2460 91.1013 -16763.7944 -15984.6748 89.4266 729.0143 780.9287 42189.0761 0.0493 -0.3794
ENERGY: 75000 0.1533 2.2319 25.2691 0.0000 -20375.1054 3557.3653 0.0000 0.0000 784.3344 -16005.7514 91.8964 -16790.0858 -16003.2616 89.2392 666.6827 745.2049 42125.3998 -0.1148 -0.0187
TCL: Running 25000 steps at 120 kelvin.
TCL: Setting parameter langevinTemp to 120
TCL: Running for 25000 steps
ETITLE: TS BOND ANGLE DIHED IMPRP ELECT VDW BOUNDARY MISC KINETIC TOTAL TEMP POTENTIAL TOTAL3 TEMPAVG PRESSURE GPRESSURE VOLUME PRESSAVG GPRESSAVG
ENERGY: 75000 0.1533 2.2319 25.2691 0.0000 -20375.1054 3557.3653 0.0000 0.0000 783.9505 -16006.1353 91.8514 -16790.0858 -16004.8755 91.8514 695.5078 745.4833 42125.3998 695.5078 745.4833
ENERGY: 80000 1.3929 3.2977 25.6424 0.0000 -19802.8590 3266.5972 0.0000 0.0000 1043.2341 -15462.6948 122.2303 -16505.9289 -15460.3930 118.0464 -167.7234 -74.7820 42471.1227 5.7678 6.4150
ENERGY: 85000 0.2585 3.4284 25.5184 0.0000 -19800.5342 3238.2125 0.0000 0.0000 997.0923 -15536.0241 116.8241 -16533.1164 -15533.6417 120.1384 -487.9738 -447.5970 42632.9457 0.7056 0.6819
ENERGY: 90000 1.5281 1.4434 27.2645 0.0000 -19775.2801 3200.9854 0.0000 0.0000 1032.7988 -15511.2599 121.0077 -16544.0588 -15510.0075 119.6635 -578.1301 -545.9037 42392.8240 4.5493 4.3847
ENERGY: 95000 0.2476 2.2067 25.6706 0.0000 -19957.5237 3344.9771 0.0000 0.0000 981.2908 -15603.1309 114.9728 -16584.4217 -15601.6876 119.7238 97.8011 130.1712 42204.1104 7.5042 7.4045
ENERGY: 100000 1.4930 2.3188 25.4682 0.0000 -20013.1021 3416.0871 0.0000 0.0000 1019.9545 -15547.7804 119.5028 -16567.7349 -15546.4281 120.6521 588.5564 623.1267 41936.2149 2.3271 2.3687
TCL: Running 25000 steps at 150 kelvin.
TCL: Setting parameter langevinTemp to 150
TCL: Running for 25000 steps
ETITLE: TS BOND ANGLE DIHED IMPRP ELECT VDW BOUNDARY MISC KINETIC TOTAL TEMP POTENTIAL TOTAL3 TEMPAVG PRESSURE GPRESSURE VOLUME PRESSAVG GPRESSAVG
ENERGY: 100000 1.4930 2.3188 25.4682 0.0000 -20013.1021 3416.0871 0.0000 0.0000 1019.4290 -15548.3059 119.4412 -16567.7349 -15546.6109 119.4412 564.8381 622.2483 41936.2149 564.8381 622.2483
ENERGY: 105000 0.7739 1.9684 26.3179 0.0000 -19559.1993 3247.4967 0.0000 0.0000 1300.6082 -14982.0341 152.3855 -16282.6423 -14978.4633 146.8436 127.4505 238.7325 42550.0753 4.3121 4.4569
ENERGY: 110000 0.3520 1.8179 25.5628 0.0000 -19463.6577 3125.1233 0.0000 0.0000 1261.4504 -15049.3513 147.7976 -16310.8017 -15044.7988 148.4019 -607.8612 -521.6555 42454.3858 1.3545 1.5368
ENERGY: 115000 1.5954 1.7141 26.4682 0.0000 -19553.1125 3192.1201 0.0000 0.0000 1293.2180 -15037.9967 151.5197 -16331.2147 -15033.5259 149.9746 -231.2408 -179.2321 42390.3589 -1.4069 -1.2760
ENERGY: 120000 0.0896 1.8651 26.5113 0.0000 -19665.4911 3294.8107 0.0000 0.0000 1271.7450 -15070.4695 149.0038 -16342.2145 -15067.8242 150.3486 303.3804 341.6806 42498.0776 -2.3984 -1.9421
ENERGY: 125000 0.4816 2.2784 26.1474 0.0000 -19753.7555 3333.0138 0.0000 0.0000 1285.8916 -15105.9426 150.6613 -16391.8342 -15103.6397 149.9835 336.4703 419.6101 42277.2162 3.3046 3.7274
TCL: Running 50000 steps at 180 kelvin.
TCL: Setting parameter langevinTemp to 180
TCL: Running for 50000 steps
ETITLE: TS BOND ANGLE DIHED IMPRP ELECT VDW BOUNDARY MISC KINETIC TOTAL TEMP POTENTIAL TOTAL3 TEMPAVG PRESSURE GPRESSURE VOLUME PRESSAVG GPRESSAVG
ENERGY: 125000 0.4816 2.2784 26.1474 0.0000 -19753.7555 3333.0138 0.0000 0.0000 1285.2627 -15106.5716 150.5876 -16391.8342 -15104.5246 150.5876 352.3546 419.1384 42277.2162 352.3546 419.1384
ENERGY: 135000 1.3892 3.4273 25.1938 0.0000 -19054.5531 3096.4808 0.0000 0.0000 1529.9086 -14398.1533 179.2515 -15928.0619 -14395.4378 180.0689 67.5876 151.8599 42808.7348 1.6736 0.9075
ENERGY: 145000 2.5039 1.7329 25.8398 0.0000 -19050.1427 3035.1264 0.0000 0.0000 1516.9294 -14468.0102 177.7308 -15984.9396 -14464.4500 180.0040 -220.9528 -157.9087 42220.4263 5.6716 5.2936
ENERGY: 155000 0.2314 1.8736 26.4925 0.0000 -19030.5093 3013.9341 0.0000 0.0000 1542.2836 -14445.6941 180.7014 -15987.9777 -14441.2748 180.7422 -285.5475 -254.1164 41992.3702 4.2716 4.7000
ENERGY: 165000 0.6822 3.5683 28.2295 0.0000 -19058.6184 3056.3939 0.0000 0.0000 1533.4863 -14436.2581 179.6706 -15969.7444 -14432.5866 180.2701 -131.4627 -54.5810 42244.9849 3.3836 3.3566
ENERGY: 175000 0.7160 3.5360 25.3750 0.0000 -19096.5931 3073.0869 0.0000 0.0000 1545.8396 -14448.0396 181.1180 -15993.8792 -14443.5241 180.4940 49.5063 60.6981 42148.7906 2.0884 2.2622
TCL: Running 50000 steps at 210 kelvin.
TCL: Setting parameter langevinTemp to 210
TCL: Running for 50000 steps
ETITLE: TS BOND ANGLE DIHED IMPRP ELECT VDW BOUNDARY MISC KINETIC TOTAL TEMP POTENTIAL TOTAL3 TEMPAVG PRESSURE GPRESSURE VOLUME PRESSAVG GPRESSAVG
ENERGY: 175000 0.7160 3.5360 25.3750 0.0000 -19096.5931 3073.0869 0.0000 0.0000 1545.0877 -14448.7915 181.0299 -15993.8792 -14446.4593 181.0299 -0.7344 61.6934 42148.7906 -0.7344 61.6934
ENERGY: 185000 0.2088 4.4771 27.0014 0.0000 -18162.8640 2769.8219 0.0000 0.0000 1814.0305 -13547.3244 212.5405 -15361.3548 -13543.6492 209.2701 -12.2720 -4.3520 42131.1038 2.4491 2.1117
ENERGY: 195000 0.6966 4.7202 25.7713 0.0000 -18207.9407 2760.9195 0.0000 0.0000 1794.4076 -13621.4255 210.2414 -15415.8331 -13616.7305 210.4148 -177.0068 -81.1986 41599.2747 5.2495 4.8094
ENERGY: 205000 0.7270 1.8948 25.9983 0.0000 -18204.8951 2809.5686 0.0000 0.0000 1766.8892 -13599.8173 207.0173 -15366.7065 -13597.3051 211.9830 126.0158 229.9231 41861.2651 6.3856 5.7799
ENERGY: 215000 2.5343 3.0783 25.7602 0.0000 -18010.4463 2657.4546 0.0000 0.0000 1801.1386 -13520.4802 211.0301 -15321.6188 -13515.5944 210.0907 -407.6950 -310.8521 41641.9716 0.3713 0.7170
ENERGY: 225000 1.2360 3.4317 26.8429 0.0000 -18206.0283 2830.0210 0.0000 0.0000 1785.8141 -13558.6826 209.2346 -15344.4967 -13554.3479 210.4774 362.9332 473.7943 41764.5915 3.3239 4.1557
TCL: Running 50000 steps at 240 kelvin.
TCL: Setting parameter langevinTemp to 240
TCL: Running for 50000 steps
ETITLE: TS BOND ANGLE DIHED IMPRP ELECT VDW BOUNDARY MISC KINETIC TOTAL TEMP POTENTIAL TOTAL3 TEMPAVG PRESSURE GPRESSURE VOLUME PRESSAVG GPRESSAVG
ENERGY: 225000 1.2360 3.4317 26.8429 0.0000 -18206.0283 2830.0210 0.0000 0.0000 1784.9129 -13559.5838 209.1290 -15344.4967 -13556.1969 209.1290 402.0146 474.1999 41764.5915 402.0146 474.1999
ENERGY: 235000 0.4822 4.1461 26.6728 0.0000 -17219.7894 2446.8315 0.0000 0.0000 2039.6254 -12702.0313 238.9723 -14741.6567 -12699.4572 239.7640 -401.5902 -300.8618 42367.0011 3.6459 3.4514
ENERGY: 245000 0.2561 4.1578 25.3014 0.0000 -17078.2186 2413.8743 0.0000 0.0000 2097.9969 -12536.6322 245.8114 -14634.6291 -12532.1225 240.4184 -410.5680 -331.7669 42515.7982 -1.8730 -2.2600
ENERGY: 255000 0.2095 6.3107 25.2859 0.0000 -17156.1985 2405.8734 0.0000 0.0000 2063.6648 -12654.8541 241.7889 -14718.5190 -12650.2840 240.0113 -613.9755 -511.6871 42300.5463 0.2144 0.4947
ENERGY: 265000 0.1083 3.1281 29.4645 0.0000 -17236.8130 2512.6187 0.0000 0.0000 2098.5895 -12592.9039 245.8809 -14691.4934 -12588.5158 241.1977 93.3335 182.8042 42388.8061 4.5678 4.5092
ENERGY: 275000 2.3700 3.1389 27.4717 0.0000 -17145.6274 2376.3146 0.0000 0.0000 2073.1235 -12663.2087 242.8971 -14736.3322 -12657.1896 242.3608 -530.8601 -432.9872 41800.0603 2.8750 2.5065
TCL: Running 50000 steps at 270 kelvin.
TCL: Setting parameter langevinTemp to 270
TCL: Running for 50000 steps
ETITLE: TS BOND ANGLE DIHED IMPRP ELECT VDW BOUNDARY MISC KINETIC TOTAL TEMP POTENTIAL TOTAL3 TEMPAVG PRESSURE GPRESSURE VOLUME PRESSAVG GPRESSAVG
ENERGY: 275000 2.3700 3.1389 27.4717 0.0000 -17145.6274 2376.3146 0.0000 0.0000 2072.0854 -12664.2468 242.7755 -14736.3322 -12661.0745 242.7755 -524.2404 -432.1064 41800.0603 -524.2404 -432.1064
ENERGY: 285000 0.2967 5.6531 25.5297 0.0000 -16308.1918 2278.0594 0.0000 0.0000 2350.8450 -11647.8078 275.4363 -13998.6529 -11644.8087 270.7560 -33.2345 59.3890 43681.4258 7.4888 7.3039
ENERGY: 295000 1.7578 3.0107 26.0261 0.0000 -16269.4514 2195.9587 0.0000 0.0000 2299.1643 -11743.5336 269.3812 -14042.6979 -11739.3386 270.2746 -600.1608 -502.1017 43803.4170 0.8786 0.4910
ENERGY: 305000 0.6655 4.1808 25.5467 0.0000 -16581.9614 2427.6033 0.0000 0.0000 2353.2024 -11770.7627 275.7125 -14123.9651 -11765.4270 270.3312 740.2682 852.5745 43183.8463 2.9545 2.8896
ENERGY: 315000 3.1760 1.4395 26.3553 0.0000 -16315.6753 2184.4994 0.0000 0.0000 2328.2666 -11771.9385 272.7909 -14100.2051 -11765.7753 271.1675 -523.4385 -419.3806 43055.9227 4.3288 4.6022
ENERGY: 325000 1.6296 2.8089 27.0290 0.0000 -16470.5787 2295.4074 0.0000 0.0000 2362.3599 -11781.3439 276.7855 -14143.7038 -11775.6823 269.4694 75.6767 174.7887 42644.2434 -3.2224 -3.4292
TCL: Running 1000000 steps at 300 kelvin.
TCL: Setting parameter langevinTemp to 300
TCL: Running for 1000000 steps
ETITLE: TS BOND ANGLE DIHED IMPRP ELECT VDW BOUNDARY MISC KINETIC TOTAL TEMP POTENTIAL TOTAL3 TEMPAVG PRESSURE GPRESSURE VOLUME PRESSAVG GPRESSAVG
ENERGY: 325000 1.6296 2.8089 27.0290 0.0000 -16470.5787 2295.4074 0.0000 0.0000 2361.1872 -11782.5166 276.6481 -14143.7038 -11779.9643 276.6481 89.4997 175.3051 42644.2434 89.4997 175.3051
ENERGY: 525000 1.1236 3.3595 25.4647 0.0000 -15794.6716 2143.5420 0.0000 0.0000 2528.4144 -11092.7673 296.2412 -13621.1818 -11088.2977 301.3828 117.8252 162.7556 44085.7609 3.1383 3.3079
ENERGY: 725000 0.5340 7.2144 25.0061 0.0000 -15743.0979 2074.4029 0.0000 0.0000 2618.6364 -11017.3041 306.8121 -13635.9405 -11012.9782 301.3692 -222.1454 -156.1276 43764.4064 3.1911 3.0382
ENERGY: 925000 1.0253 4.3301 26.8323 0.0000 -15578.9881 2031.1078 0.0000 0.0000 2498.6862 -11017.0065 292.7581 -13515.6926 -11012.5630 299.6899 -500.6445 -377.9246 44468.1153 3.0180 2.4196
ENERGY: 1125000 0.3152 4.1784 25.3766 0.0000 -15675.7217 2141.6277 0.0000 0.0000 2555.1335 -10949.0904 299.3718 -13504.2239 -10943.7885 299.7772 278.8483 394.5440 44091.9750 -2.4929 -1.8984
ENERGY: 1325000 0.9687 2.3702 28.2731 0.0000 -15713.3438 2115.1373 0.0000 0.0000 2523.0148 -11043.5798 295.6086 -13566.5946 -11039.2197 300.2748 96.2385 177.0360 43749.2373 5.4422 4.2852
TCL: Exiting due to exit command.
