Info: SIMULATION PARAMETERS:
Info: TIMESTEP               2
Info: NUMBER OF STEPS        0
Info: STEPS PER CYCLE        10
Info: PERIODIC CELL BASIS 1  32.853 0 0
Info: PERIODIC CELL BASIS 2  0 36.762 0
Info: PERIODIC CELL BASIS 3  0 0 36.199
Info: PERIODIC CELL CENTER   0 0 0
Info: WRAPPING WATERS AROUND PERIODIC BOUNDARIES ON OUTPUT.
Info: WRAPPING ALL CLUSTERS AROUND PERIODIC BOUNDARIES ON OUTPUT.
Info: FIRST LDB TIMESTEP     50
Info: LAST LDB TIMESTEP     -1
Info: HOM BACKGROUND SCALING 1
Info: PME BACKGROUND SCALING 1
Info: MIN ATOMS PER PATCH    40
Info: EMPTY PATCH LOAD       40 ATOMS
Info: INITIAL TEMPERATURE    300
Info: CENTER OF MASS MOVING INITIALLY? NO
Info: DIELECTRIC             1
Info: EXCLUDE                SCALED ONE-FOUR
Info: 1-4 ELECTROSTATICS SCALED BY 0.833333
Info: MODIFIED 1-4 VDW PARAMETERS WILL BE USED
Info: DCD FILENAME           mobley_2782339_equil.dcd
Info: DCD FREQUENCY          100000
Info: DCD FIRST STEP         100000
Info: DCD FILE WILL CONTAIN UNIT CELL DATA
Info: XST FILENAME           mobley_2782339_equil.xst
Info: XST FREQUENCY          100000
Info: NO VELOCITY DCD OUTPUT
Info: NO FORCE DCD OUTPUT
Info: OUTPUT FILENAME        mobley_2782339_equil
Info: BINARY OUTPUT FILES WILL BE USED
Info: RESTART FILENAME       mobley_2782339_equil.restart
Info: RESTART FREQUENCY      100000
Info: BINARY RESTART FILES WILL BE USED
Info: CUTOFF                 9
Info: PAIRLIST DISTANCE      11
Info: PAIRLIST SHRINK RATE   0.01
Info: PAIRLIST GROW RATE     0.01
Info: PAIRLIST TRIGGER       0.3
Info: PAIRLISTS PER CYCLE    2
Info: PAIRLISTS ENABLED
Info: MARGIN                 8
Info: HYDROGEN GROUP CUTOFF  2.5
Info: PATCH DIMENSION        21.5
Info: ENERGY OUTPUT STEPS    100000
Info: ENERGY EVALUATION STEPS    100000
Info: OUTPUT ENERGY PRECISION 4
Info: CROSSTERM ENERGY INCLUDED IN DIHEDRAL
Info: TIMING OUTPUT STEPS    1000000
Info: PRESSURE OUTPUT STEPS  100000
Info: FIXED ATOMS ACTIVE
Info: LANGEVIN DYNAMICS ACTIVE
Info: LANGEVIN TEMPERATURE   30
Info: LANGEVIN USING BBK INTEGRATOR
Info: LANGEVIN DAMPING COEFFICIENT IS 1 INVERSE PS
Info: LANGEVIN DYNAMICS APPLIED TO HYDROGENS
Info: LANGEVIN PISTON PRESSURE CONTROL ACTIVE
Info:        TARGET PRESSURE IS 1.01325 BAR
Info:     OSCILLATION PERIOD IS 50 FS
Info:             DECAY TIME IS 25 FS
Info:     PISTON TEMPERATURE IS 300 K
Info:       PRESSURE CONTROL IS GROUP-BASED
Info:    INITIAL STRAIN RATE IS 0 0 0
Info:       CELL FLUCTUATION IS ISOTROPIC
Info: PARTICLE MESH EWALD (PME) ACTIVE
Info: PME TOLERANCE               1e-06
Info: PME EWALD COEFFICIENT       0.348832
Info: PME INTERPOLATION ORDER     4
Info: PME GRID DIMENSIONS         36 40 40
Info: PME MAXIMUM GRID SPACING    1
Info: FULL ELECTROSTATIC EVALUATION FREQUENCY      2
Info: USING VERLET I (r-RESPA) MTS SCHEME.
Info: C1 SPLITTING OF LONG RANGE ELECTROSTATICS
Info: PLACING ATOMS IN PATCHES BY HYDROGEN GROUPS
Info: RIGID BONDS TO HYDROGEN : ALL
Info:         ERROR TOLERANCE : 1e-08
Info:          MAX ITERATIONS : 100
Info: RIGID WATER USING SETTLE ALGORITHM
Info: RANDOM NUMBER SEED     1742269517
Info: USE HYDROGEN BONDS?    NO
Info: Using AMBER format force field!
Info: AMBER PARM FILE        mobley_2782339.prmtop
Info: COORDINATE PDB         mobley_2782339.pdb
Info: Exclusions will be read from PARM file!
Info: SCNB (VDW SCALING)     2
Info: USING ARITHMETIC MEAN TO COMBINE L-J SIGMA PARAMETERS
Info: BINARY COORDINATES     mobley_2782339_min.coor
Info: SUMMARY OF PARAMETERS:
Info: 8 BONDS
Info: 8 ANGLES
Info: 7 DIHEDRAL
Info: 0 IMPROPER
Info: 0 CROSSTERM
Info: 0 VDW
Info: 28 VDW_PAIRS
Info: 0 NBTHOLE_PAIRS
Info: STRUCTURE SUMMARY:
Info: 2926 ATOMS
Info: 2927 BONDS
Info: 27 ANGLES
Info: 49 DIHEDRALS
Info: 0 IMPROPERS
Info: 0 CROSSTERMS
Info: 2986 EXCLUSIONS
Info: 16 FIXED ATOMS
Info: 2915 RIGID BONDS
Info: 5 RIGID BONDS BETWEEN FIXED ATOMS
Info: 5820 DEGREES OF FREEDOM
Info: 981 HYDROGEN GROUPS
Info: 3 ATOMS IN LARGEST HYDROGEN GROUP
Info: 981 MIGRATION GROUPS
Info: 3 ATOMS IN LARGEST MIGRATION GROUP
Info: 11 HYDROGEN GROUPS WITH ALL ATOMS FIXED
Info: TOTAL MASS = 17622.7 amu
Info: TOTAL CHARGE = 5.21541e-08 e
Info: MASS DENSITY = 0.66936 g/cm^3
Info: ATOM DENSITY = 0.0669273 atoms/A^3
Info: ADDED 0 IMPLICIT EXCLUSIONS
Info: NONBONDED TABLE R-SQUARED SPACING: 0.0625
Info: NONBONDED TABLE SIZE: 705 POINTS
Info: REMOVING COM VELOCITY 0.169238 0.13266 0.0205445
TCL: Running for 100000 steps
ETITLE: TS BOND ANGLE DIHED IMPRP ELECT VDW BOUNDARY MISC KINETIC TOTAL TEMP POTENTIAL TOTAL3 TEMPAVG PRESSURE GPRESSURE VOLUME PRESSAVG GPRESSAVG
ENERGY: 0 0.0000 0.0000 0.0000 0.0000 -13658.9541 2373.5288 0.0000 0.0000 1739.3008 -9546.1244 300.7753 -11285.4253 -9545.7971 300.7753 402.3225 446.4538 43719.0522 402.3225 446.4538
ENERGY: 100000 0.0000 0.0000 0.0000 0.0000 -14233.4811 2406.0058 0.0000 0.0000 173.3345 -11654.1408 29.9745 -11827.4753 -11653.5684 30.9403 -244.0027 -179.8689 28201.4622 5.0324 5.0239
TCL: Running 100000 steps at 60 kelvin.
TCL: Setting parameter langevinTemp to 60
TCL: Running for 100000 steps
ETITLE: TS BOND ANGLE DIHED IMPRP ELECT VDW BOUNDARY MISC KINETIC TOTAL TEMP POTENTIAL TOTAL3 TEMPAVG PRESSURE GPRESSURE VOLUME PRESSAVG GPRESSAVG
ENERGY: 100000 0.0000 0.0000 0.0000 0.0000 -14233.4811 2406.0058 0.0000 0.0000 173.2463 -11654.2290 29.9593 -11827.4753 -11653.9167 29.9593 -243.1897 -179.8231 28201.4622 -243.1897 -179.8231
ENERGY: 200000 0.0000 0.0000 0.0000 0.0000 -14256.2066 2496.5864 0.0000 0.0000 341.6035 -11418.0167 59.0731 -11759.6201 -11417.2819 60.0569 736.3919 810.9444 28147.2861 4.0294 4.0771
TCL: Running 100000 steps at 90 kelvin.
TCL: Setting parameter langevinTemp to 90
TCL: Running for 100000 steps
ETITLE: TS BOND ANGLE DIHED IMPRP ELECT VDW BOUNDARY MISC KINETIC TOTAL TEMP POTENTIAL TOTAL3 TEMPAVG PRESSURE GPRESSURE VOLUME PRESSAVG GPRESSAVG
ENERGY: 200000 0.0000 0.0000 0.0000 0.0000 -14256.2066 2496.5864 0.0000 0.0000 341.4276 -11418.1925 59.0427 -11759.6201 -11417.6772 59.0427 742.1713 811.2831 28147.2861 742.1713 811.2831
ENERGY: 300000 0.0000 0.0000 0.0000 0.0000 -14042.6020 2384.2298 0.0000 0.0000 519.6364 -11138.7359 89.8601 -11658.3722 -11137.8072 90.0441 334.9185 421.7126 28075.5444 2.5241 2.4994
TCL: Running 100000 steps at 120 kelvin.
TCL: Setting parameter langevinTemp to 120
TCL: Running for 100000 steps
ETITLE: TS BOND ANGLE DIHED IMPRP ELECT VDW BOUNDARY MISC KINETIC TOTAL TEMP POTENTIAL TOTAL3 TEMPAVG PRESSURE GPRESSURE VOLUME PRESSAVG GPRESSAVG
ENERGY: 300000 0.0000 0.0000 0.0000 0.0000 -14042.6020 2384.2298 0.0000 0.0000 519.3799 -11138.9923 89.8158 -11658.3722 -11137.7068 89.8158 357.3896 421.1816 28075.5444 357.3896 421.1816
ENERGY: 400000 0.0000 0.0000 0.0000 0.0000 -13649.9174 2148.3237 0.0000 0.0000 702.2681 -10799.3256 121.4424 -11501.5937 -10797.4890 119.7431 -1269.2000 -1252.1159 28722.0303 4.1139 4.1755
TCL: Running 100000 steps at 150 kelvin.
TCL: Setting parameter langevinTemp to 150
TCL: Running for 100000 steps
ETITLE: TS BOND ANGLE DIHED IMPRP ELECT VDW BOUNDARY MISC KINETIC TOTAL TEMP POTENTIAL TOTAL3 TEMPAVG PRESSURE GPRESSURE VOLUME PRESSAVG GPRESSAVG
ENERGY: 400000 0.0000 0.0000 0.0000 0.0000 -13649.9174 2148.3237 0.0000 0.0000 701.9384 -10799.6553 121.3854 -11501.5937 -10798.1933 121.3854 -1298.3228 -1252.6501 28722.0303 -1298.3228 -1252.6501
ENERGY: 500000 0.0000 0.0000 0.0000 0.0000 -13587.5703 2242.3410 0.0000 0.0000 873.5127 -10471.7167 151.0555 -11345.2294 -10469.0429 149.8053 141.4735 186.1900 28580.9125 4.8180 4.9229
TCL: Running 100000 steps at 180 kelvin.
TCL: Setting parameter langevinTemp to 180
TCL: Running for 100000 steps
ETITLE: TS BOND ANGLE DIHED IMPRP ELECT VDW BOUNDARY MISC KINETIC TOTAL TEMP POTENTIAL TOTAL3 TEMPAVG PRESSURE GPRESSURE VOLUME PRESSAVG GPRESSAVG
ENERGY: 500000 0.0000 0.0000 0.0000 0.0000 -13587.5703 2242.3410 0.0000 0.0000 873.0947 -10472.1347 150.9832 -11345.2294 -10470.5271 150.9832 137.7900 186.8973 28580.9125 137.7900 186.8973
ENERGY: 600000 0.0000 0.0000 0.0000 0.0000 -13072.6124 2011.9816 0.0000 0.0000 1066.7543 -9993.8765 184.4726 -11060.6308 -9992.8248 180.3352 -780.3585 -707.2443 28805.0730 4.6681 4.6237
TCL: Running 100000 steps at 210 kelvin.
TCL: Setting parameter langevinTemp to 210
TCL: Running for 100000 steps
ETITLE: TS BOND ANGLE DIHED IMPRP ELECT VDW BOUNDARY MISC KINETIC TOTAL TEMP POTENTIAL TOTAL3 TEMPAVG PRESSURE GPRESSURE VOLUME PRESSAVG GPRESSAVG
ENERGY: 600000 0.0000 0.0000 0.0000 0.0000 -13072.6124 2011.9816 0.0000 0.0000 1066.2408 -9994.3900 184.3838 -11060.6308 -9992.2354 184.3838 -762.1905 -708.1508 28805.0730 -762.1905 -708.1508
ENERGY: 700000 0.0000 0.0000 0.0000 0.0000 -12424.1698 1859.0051 0.0000 0.0000 1220.2853 -9344.8794 211.0225 -10565.1647 -9342.3976 209.9422 98.1283 178.9993 28390.2306 3.5325 3.4974
TCL: Running 100000 steps at 240 kelvin.
TCL: Setting parameter langevinTemp to 240
TCL: Running for 100000 steps
ETITLE: TS BOND ANGLE DIHED IMPRP ELECT VDW BOUNDARY MISC KINETIC TOTAL TEMP POTENTIAL TOTAL3 TEMPAVG PRESSURE GPRESSURE VOLUME PRESSAVG GPRESSAVG
ENERGY: 700000 0.0000 0.0000 0.0000 0.0000 -12424.1698 1859.0051 0.0000 0.0000 1219.6814 -9345.4833 210.9181 -10565.1647 -9343.2593 210.9181 99.8598 179.4774 28390.2306 99.8598 179.4774
ENERGY: 800000 0.0000 0.0000 0.0000 0.0000 -11784.8087 1630.9189 0.0000 0.0000 1419.5695 -8734.3202 245.4845 -10153.8898 -8730.7925 240.0680 -705.0963 -568.2478 29217.0457 3.1825 2.9350
TCL: Running 100000 steps at 270 kelvin.
TCL: Setting parameter langevinTemp to 270
TCL: Running for 100000 steps
ETITLE: TS BOND ANGLE DIHED IMPRP ELECT VDW BOUNDARY MISC KINETIC TOTAL TEMP POTENTIAL TOTAL3 TEMPAVG PRESSURE GPRESSURE VOLUME PRESSAVG GPRESSAVG
ENERGY: 800000 0.0000 0.0000 0.0000 0.0000 -11784.8087 1630.9189 0.0000 0.0000 1418.9035 -8734.9863 245.3693 -10153.8898 -8733.1381 245.3693 -657.1025 -570.2064 29217.0457 -657.1025 -570.2064
ENERGY: 900000 0.0000 0.0000 0.0000 0.0000 -11335.4893 1583.2093 0.0000 0.0000 1551.2968 -8200.9832 268.2639 -9752.2800 -8201.0667 269.6293 65.4072 251.2890 29645.7267 2.4001 2.4321
TCL: Running 1000000 steps at 300 kelvin.
TCL: Setting parameter langevinTemp to 300
TCL: Running for 1000000 steps
ETITLE: TS BOND ANGLE DIHED IMPRP ELECT VDW BOUNDARY MISC KINETIC TOTAL TEMP POTENTIAL TOTAL3 TEMPAVG PRESSURE GPRESSURE VOLUME PRESSAVG GPRESSAVG
ENERGY: 900000 0.0000 0.0000 0.0000 0.0000 -11335.4893 1583.2093 0.0000 0.0000 1550.5171 -8201.7629 268.1291 -9752.2800 -8199.4028 268.1291 156.5286 249.6466 29645.7267 156.5286 249.6466
ENERGY: 1100000 0.0000 0.0000 0.0000 0.0000 -10778.0727 1394.6079 0.0000 0.0000 1742.7905 -7640.6743 301.3787 -9383.4648 -7639.3777 300.5010 -320.4123 -237.9226 30199.2887 1.9441 1.9882
ENERGY: 1300000 0.0000 0.0000 0.0000 0.0000 -10697.3386 1350.3516 0.0000 0.0000 1700.6053 -7646.3817 294.0837 -9346.9871 -7642.1931 300.2500 -553.0016 -507.8336 30112.4670 5.4079 5.5102
ENERGY: 1500000 0.0000 0.0000 0.0000 0.0000 -10748.7961 1409.1932 0.0000 0.0000 1728.6330 -7610.9699 298.9305 -9339.6029 -7606.0890 299.9443 -246.2084 -155.2992 30593.2329 4.1370 3.9277
ENERGY: 1700000 0.0000 0.0000 0.0000 0.0000 -10583.2657 1281.4886 0.0000 0.0000 1697.3629 -7604.4142 293.5230 -9301.7770 -7600.7877 300.2715 -892.1875 -835.7595 30245.1491 3.9274 3.7779
ENERGY: 1900000 0.0000 0.0000 0.0000 0.0000 -10764.6498 1469.5448 0.0000 0.0000 1727.3025 -7567.8024 298.7004 -9295.1050 -7565.7506 299.4250 458.1766 510.1315 30172.0415 1.9455 1.9032
TCL: Exiting due to exit command.
