Info: SIMULATION PARAMETERS:
Info: TIMESTEP               2
Info: NUMBER OF STEPS        0
Info: STEPS PER CYCLE        10
Info: PERIODIC CELL BASIS 1  38.861 0 0
Info: PERIODIC CELL BASIS 2  0 37.796 0
Info: PERIODIC CELL BASIS 3  0 0 39.527
Info: PERIODIC CELL CENTER   0 0 0
Info: WRAPPING WATERS AROUND PERIODIC BOUNDARIES ON OUTPUT.
Info: WRAPPING ALL CLUSTERS AROUND PERIODIC BOUNDARIES ON OUTPUT.
Info: FIRST LDB TIMESTEP     50
Info: LAST LDB TIMESTEP     -1
Info: HOM BACKGROUND SCALING 1
Info: PME BACKGROUND SCALING 1
Info: MIN ATOMS PER PATCH    40
Info: EMPTY PATCH LOAD       40 ATOMS
Info: INITIAL TEMPERATURE    300
Info: CENTER OF MASS MOVING INITIALLY? NO
Info: DIELECTRIC             1
Info: EXCLUDE                SCALED ONE-FOUR
Info: 1-4 ELECTROSTATICS SCALED BY 0.833333
Info: MODIFIED 1-4 VDW PARAMETERS WILL BE USED
Info: DCD FILENAME           mobley_5692472_min.dcd
Info: DCD FREQUENCY          5000
Info: DCD FIRST STEP         5000
Info: DCD FILE WILL CONTAIN UNIT CELL DATA
Info: XST FILENAME           mobley_5692472_min.xst
Info: XST FREQUENCY          5000
Info: NO VELOCITY DCD OUTPUT
Info: NO FORCE DCD OUTPUT
Info: OUTPUT FILENAME        mobley_5692472_min
Info: BINARY OUTPUT FILES WILL BE USED
Info: RESTART FILENAME       mobley_5692472_min.restart
Info: RESTART FREQUENCY      5000
Info: BINARY RESTART FILES WILL BE USED
Info: CUTOFF                 9
Info: PAIRLIST DISTANCE      11
Info: PAIRLIST SHRINK RATE   0.01
Info: PAIRLIST GROW RATE     0.01
Info: PAIRLIST TRIGGER       0.3
Info: PAIRLISTS PER CYCLE    2
Info: PAIRLISTS ENABLED
Info: MARGIN                 1
Info: HYDROGEN GROUP CUTOFF  2.5
Info: PATCH DIMENSION        14.5
Info: ENERGY OUTPUT STEPS    5000
Info: ENERGY EVALUATION STEPS    5000
Info: OUTPUT ENERGY PRECISION 4
Info: CROSSTERM ENERGY INCLUDED IN DIHEDRAL
Info: TIMING OUTPUT STEPS    50000
Info: PRESSURE OUTPUT STEPS  5000
Info: LANGEVIN DYNAMICS ACTIVE
Info: LANGEVIN TEMPERATURE   300
Info: LANGEVIN USING BBK INTEGRATOR
Info: LANGEVIN DAMPING COEFFICIENT IS 1 INVERSE PS
Info: LANGEVIN DYNAMICS APPLIED TO HYDROGENS
Info: LANGEVIN PISTON PRESSURE CONTROL ACTIVE
Info:        TARGET PRESSURE IS 1.01325 BAR
Info:     OSCILLATION PERIOD IS 50 FS
Info:             DECAY TIME IS 25 FS
Info:     PISTON TEMPERATURE IS 300 K
Info:       PRESSURE CONTROL IS GROUP-BASED
Info:    INITIAL STRAIN RATE IS 0 0 0
Info:       CELL FLUCTUATION IS ISOTROPIC
Info: PARTICLE MESH EWALD (PME) ACTIVE
Info: PME TOLERANCE               1e-06
Info: PME EWALD COEFFICIENT       0.348832
Info: PME INTERPOLATION ORDER     4
Info: PME GRID DIMENSIONS         40 40 40
Info: PME MAXIMUM GRID SPACING    1
Info: FULL ELECTROSTATIC EVALUATION FREQUENCY      2
Info: USING VERLET I (r-RESPA) MTS SCHEME.
Info: C1 SPLITTING OF LONG RANGE ELECTROSTATICS
Info: PLACING ATOMS IN PATCHES BY HYDROGEN GROUPS
Info: RIGID BONDS TO HYDROGEN : ALL
Info:         ERROR TOLERANCE : 1e-08
Info:          MAX ITERATIONS : 100
Info: RIGID WATER USING SETTLE ALGORITHM
Info: RANDOM NUMBER SEED     1741179608
Info: USE HYDROGEN BONDS?    NO
Info: Using AMBER format force field!
Info: AMBER PARM FILE        mobley_5692472.prmtop
Info: COORDINATE PDB         mobley_5692472.pdb
Info: Exclusions will be read from PARM file!
Info: SCNB (VDW SCALING)     2
Info: USING ARITHMETIC MEAN TO COMBINE L-J SIGMA PARAMETERS
Info: SUMMARY OF PARAMETERS:
Info: 5 BONDS
Info: 4 ANGLES
Info:   4 HARMONIC
Info:   0 COSINE-BASED
Info: 2 DIHEDRAL
Info: 0 IMPROPER
Info: 0 CROSSTERM
Info: 0 VDW
Info: 21 VDW_PAIRS
Info: 0 NBTHOLE_PAIRS
Info: STRUCTURE SUMMARY:
Info: 4012 ATOMS
Info: 4011 BONDS
Info: 15 ANGLES
Info: 12 DIHEDRALS
Info: 0 IMPROPERS
Info: 0 CROSSTERMS
Info: 4038 EXCLUSIONS
Info: 4009 RIGID BONDS
Info: 8027 DEGREES OF FREEDOM
Info: 1337 HYDROGEN GROUPS
Info: 4 ATOMS IN LARGEST HYDROGEN GROUP
Info: 1337 MIGRATION GROUPS
Info: 4 ATOMS IN LARGEST MIGRATION GROUP
Info: TOTAL MASS = 24078.4 amu
Info: TOTAL CHARGE = 7.45058e-09 e
Info: MASS DENSITY = 0.688706 g/cm^3
Info: ATOM DENSITY = 0.0691046 atoms/A^3
Info: ADDED 0 IMPLICIT EXCLUSIONS
Info: NONBONDED TABLE R-SQUARED SPACING: 0.0625
Info: NONBONDED TABLE SIZE: 705 POINTS
Info: REMOVING COM VELOCITY 0.131988 0.101596 -0.166055
TCL: Minimizing for 2000 steps
ETITLE: TS BOND ANGLE DIHED IMPRP ELECT VDW BOUNDARY MISC KINETIC TOTAL TEMP POTENTIAL TOTAL3 TEMPAVG PRESSURE GPRESSURE VOLUME PRESSAVG GPRESSAVG
ENERGY: 0 0.0211 0.1300 0.0005 0.0000 -12279.7230 1416.7054 0.0000 0.0000 0.0000 -10862.8660 0.0000 -10862.8660 -10862.8660 0.0000 10494.0445 -15245.2161 58056.8764 10494.0445 -15245.2161
ENERGY: 400 1.3068 1.0211 0.0328 0.0000 -17052.4013 2674.5465 0.0000 0.0000 0.0000 -14375.4941 0.0000 -14375.4941 -14375.4941 0.0000 16243.2393 16382.4606 58056.8764 16243.2393 16382.4606
ENERGY: 800 0.4173 0.6906 0.0218 0.0000 -17831.1614 2966.4357 0.0000 0.0000 0.0000 -14863.5960 0.0000 -14863.5960 -14863.5960 0.0000 17807.7300 17938.1032 58056.8764 17807.7300 17938.1032
ENERGY: 1200 0.4159 0.2598 0.0105 0.0000 -18233.5853 3156.0685 0.0000 0.0000 0.0000 -15076.8306 0.0000 -15076.8306 -15076.8306 0.0000 18868.6832 18999.6674 58056.8764 18868.6832 18999.6674
ENERGY: 1600 0.0374 0.2764 0.0044 0.0000 -18413.2993 3230.1737 0.0000 0.0000 0.0000 -15182.8073 0.0000 -15182.8073 -15182.8073 0.0000 19360.1646 19464.2724 58056.8764 19360.1646 19464.2724
ENERGY: 2000 0.0188 0.1490 0.0215 0.0000 -18526.9427 3283.6633 0.0000 0.0000 0.0000 -15243.0902 0.0000 -15243.0902 -15243.0902 0.0000 19692.3412 19798.8696 58056.8764 19692.3412 19798.8696
TCL: Exiting due to exit command.
Info: NAMD 3.0.1 for Linux-x86_64-multicore
Info: Please visit http://www.ks.uiuc.edu/Research/namd/
Info: for updates, documentation, and support information.
Info: Please cite Phillips et al., J. Chem. Phys. 153:044130 (2020) doi:10.1063/5.0014475
Info: in all publications reporting results obtained with NAMD.
Info: Based on Charm++/Converse 80000 for multicore-linux-x86_64-gcc
Info: Built Mon Oct 14 11:11:06 CDT 2024 by dhardy on athine.ks.uiuc.edu
Info: 1 NAMD  3.0.1  Linux-x86_64-multicore  16    k139  z5358697
Info: Running on 16 processors, 1 nodes, 1 physical nodes.
Info: CPU topology information available.
Info: Charm++/Converse parallel runtime startup completed at 0.0124348 s
Info: 1043.63 MB of memory in use based on /proc/self/stat
Info: Configuration file is mobley_5692472_equil.namd
Info: Working in the current directory /srv/scratch/z5358697/prod/5692472/prep
TCL: Running 25000 steps at 30 kelvin.
TCL: Suspending until startup complete.
Info: SIMULATION PARAMETERS:
Info: TIMESTEP               2
Info: NUMBER OF STEPS        0
Info: STEPS PER CYCLE        10
Info: PERIODIC CELL BASIS 1  38.861 0 0
Info: PERIODIC CELL BASIS 2  0 37.796 0
Info: PERIODIC CELL BASIS 3  0 0 39.527
Info: PERIODIC CELL CENTER   0 0 0
Info: WRAPPING WATERS AROUND PERIODIC BOUNDARIES ON OUTPUT.
Info: WRAPPING ALL CLUSTERS AROUND PERIODIC BOUNDARIES ON OUTPUT.
Info: FIRST LDB TIMESTEP     50
Info: LAST LDB TIMESTEP     -1
Info: HOM BACKGROUND SCALING 1
Info: PME BACKGROUND SCALING 1
Info: MIN ATOMS PER PATCH    40
Info: EMPTY PATCH LOAD       40 ATOMS
Info: INITIAL TEMPERATURE    300
Info: CENTER OF MASS MOVING INITIALLY? NO
Info: DIELECTRIC             1
Info: EXCLUDE                SCALED ONE-FOUR
Info: 1-4 ELECTROSTATICS SCALED BY 0.833333
Info: MODIFIED 1-4 VDW PARAMETERS WILL BE USED
Info: DCD FILENAME           mobley_5692472_equil.dcd
Info: DCD FREQUENCY          5000
Info: DCD FIRST STEP         5000
Info: DCD FILE WILL CONTAIN UNIT CELL DATA
Info: XST FILENAME           mobley_5692472_equil.xst
Info: XST FREQUENCY          5000
Info: NO VELOCITY DCD OUTPUT
Info: NO FORCE DCD OUTPUT
Info: OUTPUT FILENAME        mobley_5692472_equil
Info: BINARY OUTPUT FILES WILL BE USED
Info: RESTART FILENAME       mobley_5692472_equil.restart
Info: RESTART FREQUENCY      5000
Info: BINARY RESTART FILES WILL BE USED
Info: CUTOFF                 9
Info: PAIRLIST DISTANCE      11
Info: PAIRLIST SHRINK RATE   0.01
Info: PAIRLIST GROW RATE     0.01
Info: PAIRLIST TRIGGER       0.3
Info: PAIRLISTS PER CYCLE    2
Info: PAIRLISTS ENABLED
Info: MARGIN                 1
Info: HYDROGEN GROUP CUTOFF  2.5
Info: PATCH DIMENSION        14.5
Info: ENERGY OUTPUT STEPS    5000
Info: ENERGY EVALUATION STEPS    5000
Info: OUTPUT ENERGY PRECISION 4
Info: CROSSTERM ENERGY INCLUDED IN DIHEDRAL
Info: TIMING OUTPUT STEPS    50000
Info: PRESSURE OUTPUT STEPS  5000
Info: LANGEVIN DYNAMICS ACTIVE
Info: LANGEVIN TEMPERATURE   30
Info: LANGEVIN USING BBK INTEGRATOR
Info: LANGEVIN DAMPING COEFFICIENT IS 1 INVERSE PS
Info: LANGEVIN DYNAMICS APPLIED TO HYDROGENS
Info: LANGEVIN PISTON PRESSURE CONTROL ACTIVE
Info:        TARGET PRESSURE IS 1.01325 BAR
Info:     OSCILLATION PERIOD IS 50 FS
Info:             DECAY TIME IS 25 FS
Info:     PISTON TEMPERATURE IS 300 K
Info:       PRESSURE CONTROL IS GROUP-BASED
Info:    INITIAL STRAIN RATE IS 0 0 0
Info:       CELL FLUCTUATION IS ISOTROPIC
Info: PARTICLE MESH EWALD (PME) ACTIVE
Info: PME TOLERANCE               1e-06
Info: PME EWALD COEFFICIENT       0.348832
Info: PME INTERPOLATION ORDER     4
Info: PME GRID DIMENSIONS         40 40 40
Info: PME MAXIMUM GRID SPACING    1
Info: FULL ELECTROSTATIC EVALUATION FREQUENCY      2
Info: USING VERLET I (r-RESPA) MTS SCHEME.
Info: C1 SPLITTING OF LONG RANGE ELECTROSTATICS
Info: PLACING ATOMS IN PATCHES BY HYDROGEN GROUPS
Info: RIGID BONDS TO HYDROGEN : ALL
Info:         ERROR TOLERANCE : 1e-08
Info:          MAX ITERATIONS : 100
Info: RIGID WATER USING SETTLE ALGORITHM
Info: RANDOM NUMBER SEED     1741179624
Info: USE HYDROGEN BONDS?    NO
Info: Using AMBER format force field!
Info: AMBER PARM FILE        mobley_5692472.prmtop
Info: COORDINATE PDB         mobley_5692472.pdb
Info: Exclusions will be read from PARM file!
Info: SCNB (VDW SCALING)     2
Info: USING ARITHMETIC MEAN TO COMBINE L-J SIGMA PARAMETERS
Info: BINARY COORDINATES     mobley_5692472_min.coor
Info: SUMMARY OF PARAMETERS:
Info: 5 BONDS
Info: 4 ANGLES
Info:   4 HARMONIC
Info:   0 COSINE-BASED
Info: 2 DIHEDRAL
Info: 0 IMPROPER
Info: 0 CROSSTERM
Info: 0 VDW
Info: 21 VDW_PAIRS
Info: 0 NBTHOLE_PAIRS
Info: STRUCTURE SUMMARY:
Info: 4012 ATOMS
Info: 4011 BONDS
Info: 15 ANGLES
Info: 12 DIHEDRALS
Info: 0 IMPROPERS
Info: 0 CROSSTERMS
Info: 4038 EXCLUSIONS
Info: 4009 RIGID BONDS
Info: 8027 DEGREES OF FREEDOM
Info: 1337 HYDROGEN GROUPS
Info: 4 ATOMS IN LARGEST HYDROGEN GROUP
Info: 1337 MIGRATION GROUPS
Info: 4 ATOMS IN LARGEST MIGRATION GROUP
Info: TOTAL MASS = 24078.4 amu
Info: TOTAL CHARGE = 7.45058e-09 e
Info: MASS DENSITY = 0.688706 g/cm^3
Info: ATOM DENSITY = 0.0691046 atoms/A^3
Info: ADDED 0 IMPLICIT EXCLUSIONS
Info: NONBONDED TABLE R-SQUARED SPACING: 0.0625
Info: NONBONDED TABLE SIZE: 705 POINTS
Info: REMOVING COM VELOCITY -0.0347129 -0.278839 0.00273949
TCL: Running for 25000 steps
ETITLE: TS BOND ANGLE DIHED IMPRP ELECT VDW BOUNDARY MISC KINETIC TOTAL TEMP POTENTIAL TOTAL3 TEMPAVG PRESSURE GPRESSURE VOLUME PRESSAVG GPRESSAVG
ENERGY: 0 0.0188 0.1490 0.0215 0.0000 -18526.9427 3283.6633 0.0000 0.0000 2390.9770 -12852.1132 299.7868 -15243.0902 -12851.6264 299.7868 554.8924 588.9128 58056.8764 554.8924 588.9128
ENERGY: 5000 0.0188 0.8547 0.1105 0.0000 -19186.5746 3338.7263 0.0000 0.0000 245.4608 -15601.4035 30.7765 -15846.8643 -15600.7009 47.2606 198.7922 237.9016 39638.6567 3.7074 3.9059
ENERGY: 10000 0.1682 0.6454 0.1405 0.0000 -19055.8008 3183.5603 0.0000 0.0000 239.1121 -15632.1743 29.9805 -15871.2864 -15631.4480 30.3723 -925.5366 -892.6294 39903.4589 2.8529 2.8557
ENERGY: 15000 0.1773 0.5591 0.0279 0.0000 -19130.6018 3241.0351 0.0000 0.0000 239.2959 -15649.5065 30.0035 -15888.8024 -15648.9785 29.9784 -562.7584 -513.8186 39739.9980 8.6923 8.6743
ENERGY: 20000 0.0804 0.9109 0.0866 0.0000 -19118.0499 3216.9109 0.0000 0.0000 234.9866 -15665.0745 29.4632 -15900.0611 -15664.4477 30.1314 -714.6483 -666.4725 39639.5165 1.7651 1.5606
ENERGY: 25000 0.0696 0.7694 0.1161 0.0000 -19103.6033 3197.2541 0.0000 0.0000 242.4547 -15662.9394 30.3996 -15905.3941 -15662.1010 29.9909 -838.2082 -796.0268 39701.1364 0.8875 0.8063
TCL: Running 25000 steps at 60 kelvin.
TCL: Setting parameter langevinTemp to 60
TCL: Running for 25000 steps
ETITLE: TS BOND ANGLE DIHED IMPRP ELECT VDW BOUNDARY MISC KINETIC TOTAL TEMP POTENTIAL TOTAL3 TEMPAVG PRESSURE GPRESSURE VOLUME PRESSAVG GPRESSAVG
ENERGY: 25000 0.0696 0.7694 0.1161 0.0000 -19103.6033 3197.2541 0.0000 0.0000 242.3358 -15663.0583 30.3847 -15905.3941 -15662.5312 30.3847 -845.8572 -795.9399 39701.1364 -845.8572 -795.9399
ENERGY: 30000 0.0392 1.2392 0.1114 0.0000 -19020.8159 3313.4220 0.0000 0.0000 479.1549 -15226.8492 60.0777 -15706.0041 -15225.9385 57.4556 417.0135 457.1371 39499.9110 7.4370 7.3350
ENERGY: 35000 0.1811 0.7031 0.1249 0.0000 -19125.6230 3358.1907 0.0000 0.0000 477.8214 -15288.6018 59.9105 -15766.4231 -15287.5252 60.6534 599.3524 695.7770 38992.7694 3.1644 2.8683
ENERGY: 40000 0.2869 1.1687 0.0746 0.0000 -18986.6453 3166.8944 0.0000 0.0000 477.3736 -15340.8472 59.8543 -15818.2208 -15339.4750 60.3046 -774.0585 -700.4087 39245.7211 1.3019 1.0752
ENERGY: 45000 0.0755 1.4956 0.1195 0.0000 -19062.5673 3228.4009 0.0000 0.0000 472.8280 -15359.6477 59.2844 -15832.4757 -15358.5889 59.9977 -331.4163 -261.1433 38969.7009 4.2097 4.3825
ENERGY: 50000 0.0335 1.2809 0.1533 0.0000 -19050.0305 3202.4569 0.0000 0.0000 491.7560 -15354.3500 61.6576 -15846.1060 -15352.5842 59.8935 -549.5710 -457.5906 38978.2083 0.9374 1.0634
TCL: Running 25000 steps at 90 kelvin.
TCL: Setting parameter langevinTemp to 90
TCL: Running for 25000 steps
ETITLE: TS BOND ANGLE DIHED IMPRP ELECT VDW BOUNDARY MISC KINETIC TOTAL TEMP POTENTIAL TOTAL3 TEMPAVG PRESSURE GPRESSURE VOLUME PRESSAVG GPRESSAVG
ENERGY: 50000 0.0335 1.2809 0.1533 0.0000 -19050.0305 3202.4569 0.0000 0.0000 491.5203 -15354.5857 61.6281 -15846.1060 -15353.5126 61.6281 -522.2319 -457.0022 38978.2083 -522.2319 -457.0022
ENERGY: 55000 0.2303 1.8741 0.1314 0.0000 -18765.3281 3171.0934 0.0000 0.0000 751.6091 -14840.3897 94.2387 -15591.9988 -14838.3875 87.2696 76.5423 120.2378 38947.1478 -0.2656 -0.3571
ENERGY: 60000 0.1542 1.5062 0.0751 0.0000 -18783.7062 3164.9984 0.0000 0.0000 714.6215 -14902.3509 89.6011 -15616.9724 -14900.3931 90.1487 -126.3103 -51.4937 38979.9512 2.4204 2.6480
ENERGY: 65000 0.5211 0.6790 0.4631 0.0000 -18835.0364 3178.9049 0.0000 0.0000 705.5726 -14948.8958 88.4665 -15654.4684 -14947.0204 89.9302 -264.5873 -195.8472 39260.0939 -1.4358 -1.2117
ENERGY: 70000 0.6956 0.3032 0.2171 0.0000 -18906.2543 3211.6240 0.0000 0.0000 722.9893 -14970.4252 90.6502 -15693.4145 -14969.3150 90.0088 -59.7176 0.3046 39110.1297 4.5958 4.2131
ENERGY: 75000 0.1250 1.8382 0.0694 0.0000 -19014.1208 3318.7431 0.0000 0.0000 705.3420 -14988.0030 88.4376 -15693.3450 -14987.4301 89.7654 677.1223 729.2661 38701.3587 5.8245 6.1292
TCL: Running 25000 steps at 120 kelvin.
TCL: Setting parameter langevinTemp to 120
TCL: Running for 25000 steps
ETITLE: TS BOND ANGLE DIHED IMPRP ELECT VDW BOUNDARY MISC KINETIC TOTAL TEMP POTENTIAL TOTAL3 TEMPAVG PRESSURE GPRESSURE VOLUME PRESSAVG GPRESSAVG
ENERGY: 75000 0.1250 1.8382 0.0694 0.0000 -19014.1207 3318.7431 0.0000 0.0000 704.9903 -14988.3547 88.3935 -15693.3450 -14986.8992 88.3935 667.4617 728.6715 38701.3587 667.4617 728.6715
ENERGY: 80000 0.0551 1.8776 0.0681 0.0000 -18473.0132 3065.0687 0.0000 0.0000 964.5000 -14441.4437 120.9315 -15405.9438 -14440.2643 116.9577 -192.3769 -174.5957 39292.7284 4.7104 4.3926
ENERGY: 85000 0.3258 2.1292 0.1268 0.0000 -18658.0778 3199.1867 0.0000 0.0000 985.3437 -14470.9657 123.5449 -15456.3094 -14466.6950 120.3066 517.4701 580.0399 38949.9849 1.7861 1.2103
ENERGY: 90000 1.5331 2.7010 0.8274 0.0000 -18578.8555 3095.8405 0.0000 0.0000 943.8611 -14534.0924 118.3437 -15477.9535 -14530.8076 120.8240 -250.2476 -195.3687 39121.8738 -0.4777 -0.6238
ENERGY: 95000 0.1126 1.4192 0.4414 0.0000 -18411.5025 2964.9443 0.0000 0.0000 935.3950 -14509.1901 117.2822 -15444.5851 -14506.0402 118.3161 -997.6978 -906.8620 39299.3339 -0.1441 0.5250
ENERGY: 100000 0.2442 1.5647 0.0813 0.0000 -18592.4035 3104.8054 0.0000 0.0000 962.7838 -14522.9240 120.7163 -15485.7078 -14521.8027 119.0009 -112.8849 -54.6440 39023.1724 3.9232 3.1935
TCL: Running 25000 steps at 150 kelvin.
TCL: Setting parameter langevinTemp to 150
TCL: Running for 25000 steps
ETITLE: TS BOND ANGLE DIHED IMPRP ELECT VDW BOUNDARY MISC KINETIC TOTAL TEMP POTENTIAL TOTAL3 TEMPAVG PRESSURE GPRESSURE VOLUME PRESSAVG GPRESSAVG
ENERGY: 100000 0.2442 1.5647 0.0813 0.0000 -18592.4035 3104.8054 0.0000 0.0000 962.3130 -14523.3949 120.6573 -15485.7078 -14521.5233 120.6573 -114.2185 -54.8386 39023.1724 -114.2185 -54.8386
ENERGY: 105000 1.7712 3.5735 0.3803 0.0000 -18176.5227 2945.7457 0.0000 0.0000 1156.9557 -14068.0964 145.0621 -15225.0521 -14064.9299 145.2815 -475.1254 -453.8422 39353.3834 2.5682 1.7626
ENERGY: 110000 0.1006 2.1569 0.5698 0.0000 -18217.6271 2982.6163 0.0000 0.0000 1171.6253 -14060.5581 146.9014 -15232.1834 -14057.2660 149.6578 -236.3956 -180.4421 39178.8358 2.5429 2.4472
ENERGY: 115000 0.2026 1.1768 0.2051 0.0000 -18310.9974 3066.6469 0.0000 0.0000 1222.6708 -14020.0951 153.3016 -15242.7660 -14016.3925 149.5480 414.3012 455.4549 38807.3010 3.8894 3.8435
ENERGY: 120000 0.1839 1.7526 0.3428 0.0000 -18279.8528 3002.8641 0.0000 0.0000 1200.7436 -14073.9658 150.5523 -15274.7094 -14071.5945 150.4053 -222.3676 -128.3703 39077.9193 4.0483 3.8716
ENERGY: 125000 0.0573 2.3514 0.2261 0.0000 -18341.6249 3075.3152 0.0000 0.0000 1198.8779 -14064.7970 150.3184 -15263.6748 -14061.5923 149.6269 154.7285 202.0162 39248.9302 -2.0296 -1.5920
TCL: Running 50000 steps at 180 kelvin.
TCL: Setting parameter langevinTemp to 180
TCL: Running for 50000 steps
ETITLE: TS BOND ANGLE DIHED IMPRP ELECT VDW BOUNDARY MISC KINETIC TOTAL TEMP POTENTIAL TOTAL3 TEMPAVG PRESSURE GPRESSURE VOLUME PRESSAVG GPRESSAVG
ENERGY: 125000 0.0573 2.3514 0.2261 0.0000 -18341.6249 3075.3152 0.0000 0.0000 1198.2793 -14065.3955 150.2433 -15263.6748 -14063.0905 150.2433 140.1102 202.3035 39248.9302 140.1102 202.3035
ENERGY: 135000 0.4711 1.3473 0.9013 0.0000 -17630.6690 2748.5489 0.0000 0.0000 1463.8314 -13415.5688 183.5389 -14879.4002 -13411.3642 180.8831 -842.1026 -784.8409 39755.1823 -1.3079 -1.1433
ENERGY: 145000 0.0138 3.4486 0.2426 0.0000 -17621.8754 2741.7322 0.0000 0.0000 1442.3843 -13434.0539 180.8498 -14876.4382 -13430.3233 180.0371 -855.4636 -816.1720 39715.2225 2.9598 3.2670
ENERGY: 155000 0.1477 2.9989 0.1086 0.0000 -17798.4868 2859.0303 0.0000 0.0000 1425.9842 -13510.2171 178.7935 -14936.2013 -13506.6673 180.0119 -320.7546 -284.5391 39521.3026 3.9674 3.5469
ENERGY: 165000 0.0930 3.4593 0.2791 0.0000 -17861.4678 2897.9871 0.0000 0.0000 1408.7231 -13550.9263 176.6293 -14959.6493 -13548.0195 179.8005 33.1694 90.7646 39107.6118 1.0042 0.7113
ENERGY: 175000 0.4741 2.6932 0.2741 0.0000 -17603.2063 2749.6760 0.0000 0.0000 1428.7651 -13421.3239 179.1422 -14850.0890 -13417.9553 180.7467 -725.5736 -647.5721 39438.5025 5.6582 5.8599
TCL: Running 50000 steps at 210 kelvin.
TCL: Setting parameter langevinTemp to 210
TCL: Running for 50000 steps
ETITLE: TS BOND ANGLE DIHED IMPRP ELECT VDW BOUNDARY MISC KINETIC TOTAL TEMP POTENTIAL TOTAL3 TEMPAVG PRESSURE GPRESSURE VOLUME PRESSAVG GPRESSAVG
ENERGY: 175000 0.4741 2.6932 0.2741 0.0000 -17603.2063 2749.6760 0.0000 0.0000 1428.0458 -13422.0432 179.0520 -14850.0890 -13419.2287 179.0520 -710.2616 -647.6393 39438.5025 -710.2616 -647.6393
ENERGY: 185000 0.7950 4.6342 0.1574 0.0000 -16914.8293 2573.6882 0.0000 0.0000 1630.5720 -12704.9825 204.4453 -14335.5546 -12701.4579 209.4283 -294.4788 -265.2223 39415.9818 -3.1258 -2.6368
ENERGY: 195000 0.6776 3.1981 0.3114 0.0000 -16846.7474 2551.6040 0.0000 0.0000 1667.0469 -12623.9094 209.0186 -14290.9564 -12621.5596 210.3226 -177.8141 -108.1845 39030.0048 10.6566 10.2181
ENERGY: 205000 0.2091 2.3627 0.3481 0.0000 -16833.9224 2567.1643 0.0000 0.0000 1671.5677 -12592.2705 209.5854 -14263.8382 -12588.6446 210.4739 -161.2941 -28.0323 39117.2880 6.2715 6.6561
ENERGY: 215000 0.1358 2.8934 0.2106 0.0000 -16963.9973 2634.3754 0.0000 0.0000 1685.0094 -12641.3728 211.2708 -14326.3821 -12636.7940 209.8486 152.7365 198.5165 39346.7094 0.5639 1.1219
ENERGY: 225000 0.2719 2.2032 0.6505 0.0000 -16710.7231 2482.9601 0.0000 0.0000 1705.6349 -12519.0024 213.8569 -14224.6373 -12515.3286 209.8578 -510.1176 -426.0940 39339.5083 1.4572 2.0417
TCL: Running 50000 steps at 240 kelvin.
TCL: Setting parameter langevinTemp to 240
TCL: Running for 50000 steps
ETITLE: TS BOND ANGLE DIHED IMPRP ELECT VDW BOUNDARY MISC KINETIC TOTAL TEMP POTENTIAL TOTAL3 TEMPAVG PRESSURE GPRESSURE VOLUME PRESSAVG GPRESSAVG
ENERGY: 225000 0.2719 2.2032 0.6505 0.0000 -16710.7231 2482.9601 0.0000 0.0000 1704.8000 -12519.8373 213.7522 -14224.6373 -12517.3205 213.7522 -509.6076 -425.7109 39339.5083 -509.6076 -425.7109
ENERGY: 235000 0.1647 3.2091 0.8929 0.0000 -16167.3625 2437.5753 0.0000 0.0000 1944.4523 -11781.0682 243.8004 -13725.5205 -11776.3099 239.8131 679.0703 761.9961 39175.3146 -3.6116 -2.9673
ENERGY: 245000 0.0675 4.7758 0.0505 0.0000 -16009.9813 2318.1083 0.0000 0.0000 1955.2783 -11731.7010 245.1578 -13686.9793 -11727.2022 240.2586 -95.2686 66.5379 39393.9802 6.9937 6.6920
ENERGY: 255000 0.5197 3.0536 0.5888 0.0000 -16062.7145 2320.4296 0.0000 0.0000 1884.9614 -11853.1614 236.3413 -13738.1228 -11849.1066 240.3135 -259.0830 -103.1700 39512.4161 1.5676 1.6242
ENERGY: 265000 0.3528 6.0101 0.2891 0.0000 -16117.6505 2356.3339 0.0000 0.0000 1904.3182 -11850.3464 238.7683 -13754.6646 -11845.9754 240.1131 128.8181 233.0119 38927.2670 2.1522 1.8636
ENERGY: 275000 0.0329 4.2574 0.2814 0.0000 -15884.3567 2225.3962 0.0000 0.0000 1901.5346 -11752.8541 238.4193 -13654.3887 -11749.5441 238.1690 -687.3993 -619.0774 39929.8266 3.1734 2.8650
TCL: Running 50000 steps at 270 kelvin.
TCL: Setting parameter langevinTemp to 270
TCL: Running for 50000 steps
ETITLE: TS BOND ANGLE DIHED IMPRP ELECT VDW BOUNDARY MISC KINETIC TOTAL TEMP POTENTIAL TOTAL3 TEMPAVG PRESSURE GPRESSURE VOLUME PRESSAVG GPRESSAVG
ENERGY: 275000 0.0329 4.2574 0.2814 0.0000 -15884.3567 2225.3962 0.0000 0.0000 1900.5910 -11753.7978 238.3010 -13654.3887 -11750.6453 238.3010 -702.2263 -618.7806 39929.8266 -702.2263 -618.7806
ENERGY: 285000 0.0111 3.3798 1.1215 0.0000 -15206.5015 2126.4225 0.0000 0.0000 2159.7737 -10915.7929 270.7980 -13075.5666 -10911.8626 270.1221 -143.4699 -43.0578 40926.0992 -2.8766 -3.2421
ENERGY: 295000 0.0116 3.0845 0.4928 0.0000 -15358.1925 2173.8328 0.0000 0.0000 2223.7717 -10956.9990 278.8222 -13180.7707 -10953.3154 268.9286 77.1348 212.6886 40322.0775 5.3909 5.6435
ENERGY: 305000 0.7862 4.1285 0.1601 0.0000 -15323.5725 2142.2439 0.0000 0.0000 2137.5429 -11038.7110 268.0106 -13176.2538 -11035.2251 270.0548 -148.6379 -66.1067 40548.7651 11.2681 11.3201
ENERGY: 315000 0.8596 2.6100 0.6388 0.0000 -15357.7088 2143.2519 0.0000 0.0000 2131.2617 -11079.0869 267.2230 -13210.3486 -11073.6097 268.5891 -365.9192 -247.2997 40729.6051 4.5860 4.5588
ENERGY: 325000 0.1874 1.5796 1.0477 0.0000 -15363.3091 2144.9570 0.0000 0.0000 2191.1347 -11024.4027 274.7301 -13215.5375 -11019.7764 271.1947 25.0547 119.5153 39933.8487 3.6905 4.3574
TCL: Running 1000000 steps at 300 kelvin.
TCL: Setting parameter langevinTemp to 300
TCL: Running for 1000000 steps
ETITLE: TS BOND ANGLE DIHED IMPRP ELECT VDW BOUNDARY MISC KINETIC TOTAL TEMP POTENTIAL TOTAL3 TEMPAVG PRESSURE GPRESSURE VOLUME PRESSAVG GPRESSAVG
ENERGY: 325000 0.1874 1.5796 1.0477 0.0000 -15363.3091 2144.9570 0.0000 0.0000 2190.0889 -11025.4485 274.5989 -13215.5375 -11023.1973 274.5989 33.3842 118.6999 39933.8487 33.3842 118.6999
ENERGY: 525000 0.0625 2.1976 0.3167 0.0000 -14641.8152 2010.6493 0.0000 0.0000 2336.8468 -10291.7424 292.9998 -12628.5892 -10286.1305 299.2271 213.7844 312.6599 41090.4898 6.7173 6.3697
ENERGY: 725000 0.4088 3.3800 1.0453 0.0000 -14572.0693 1963.0123 0.0000 0.0000 2397.3813 -10206.8416 300.5898 -12604.2228 -10204.7717 301.7392 -11.9092 52.3510 41222.9202 2.8128 3.0317
ENERGY: 925000 0.1066 1.9813 0.8101 0.0000 -14532.1738 1931.3648 0.0000 0.0000 2384.2642 -10213.6467 298.9451 -12597.9110 -10213.0223 300.1882 -433.5444 -311.2209 41746.6509 3.6735 2.9800
ENERGY: 1125000 0.0884 3.1830 0.2375 0.0000 -14515.7514 1893.9661 0.0000 0.0000 2460.8912 -10157.3850 308.5528 -12618.2762 -10152.7197 299.6648 -412.8603 -317.6617 41567.4645 2.0144 2.2738
ENERGY: 1325000 2.3335 2.8329 1.5099 0.0000 -14582.6474 1951.9973 0.0000 0.0000 2396.7196 -10227.2541 300.5068 -12623.9737 -10222.8144 301.1779 -356.6589 -244.2097 41579.6680 4.7280 4.8015
TCL: Exiting due to exit command.
