Info: SIMULATION PARAMETERS:
Info: TIMESTEP               2
Info: NUMBER OF STEPS        0
Info: STEPS PER CYCLE        10
Info: PERIODIC CELL BASIS 1  39.456 0 0
Info: PERIODIC CELL BASIS 2  0 39.115 0
Info: PERIODIC CELL BASIS 3  0 0 38.379
Info: PERIODIC CELL CENTER   0 0 0
Info: WRAPPING WATERS AROUND PERIODIC BOUNDARIES ON OUTPUT.
Info: WRAPPING ALL CLUSTERS AROUND PERIODIC BOUNDARIES ON OUTPUT.
Info: FIRST LDB TIMESTEP     50
Info: LAST LDB TIMESTEP     -1
Info: HOM BACKGROUND SCALING 1
Info: PME BACKGROUND SCALING 1
Info: MIN ATOMS PER PATCH    40
Info: EMPTY PATCH LOAD       40 ATOMS
Info: INITIAL TEMPERATURE    300
Info: CENTER OF MASS MOVING INITIALLY? NO
Info: DIELECTRIC             1
Info: EXCLUDE                SCALED ONE-FOUR
Info: 1-4 ELECTROSTATICS SCALED BY 0.833333
Info: MODIFIED 1-4 VDW PARAMETERS WILL BE USED
Info: DCD FILENAME           mobley_2410897_min.dcd
Info: DCD FREQUENCY          5000
Info: DCD FIRST STEP         5000
Info: DCD FILE WILL CONTAIN UNIT CELL DATA
Info: XST FILENAME           mobley_2410897_min.xst
Info: XST FREQUENCY          5000
Info: NO VELOCITY DCD OUTPUT
Info: NO FORCE DCD OUTPUT
Info: OUTPUT FILENAME        mobley_2410897_min
Info: BINARY OUTPUT FILES WILL BE USED
Info: RESTART FILENAME       mobley_2410897_min.restart
Info: RESTART FREQUENCY      5000
Info: BINARY RESTART FILES WILL BE USED
Info: CUTOFF                 9
Info: PAIRLIST DISTANCE      11
Info: PAIRLIST SHRINK RATE   0.01
Info: PAIRLIST GROW RATE     0.01
Info: PAIRLIST TRIGGER       0.3
Info: PAIRLISTS PER CYCLE    2
Info: PAIRLISTS ENABLED
Info: MARGIN                 8
Info: HYDROGEN GROUP CUTOFF  2.5
Info: PATCH DIMENSION        21.5
Info: ENERGY OUTPUT STEPS    5000
Info: ENERGY EVALUATION STEPS    5000
Info: OUTPUT ENERGY PRECISION 4
Info: CROSSTERM ENERGY INCLUDED IN DIHEDRAL
Info: TIMING OUTPUT STEPS    50000
Info: PRESSURE OUTPUT STEPS  5000
Info: LANGEVIN DYNAMICS ACTIVE
Info: LANGEVIN TEMPERATURE   300
Info: LANGEVIN USING BBK INTEGRATOR
Info: LANGEVIN DAMPING COEFFICIENT IS 1 INVERSE PS
Info: LANGEVIN DYNAMICS APPLIED TO HYDROGENS
Info: LANGEVIN PISTON PRESSURE CONTROL ACTIVE
Info:        TARGET PRESSURE IS 1.01325 BAR
Info:     OSCILLATION PERIOD IS 50 FS
Info:             DECAY TIME IS 25 FS
Info:     PISTON TEMPERATURE IS 300 K
Info:       PRESSURE CONTROL IS GROUP-BASED
Info:    INITIAL STRAIN RATE IS 0 0 0
Info:       CELL FLUCTUATION IS ISOTROPIC
Info: PARTICLE MESH EWALD (PME) ACTIVE
Info: PME TOLERANCE               1e-06
Info: PME EWALD COEFFICIENT       0.348832
Info: PME INTERPOLATION ORDER     4
Info: PME GRID DIMENSIONS         40 40 40
Info: PME MAXIMUM GRID SPACING    1
Info: FULL ELECTROSTATIC EVALUATION FREQUENCY      2
Info: USING VERLET I (r-RESPA) MTS SCHEME.
Info: C1 SPLITTING OF LONG RANGE ELECTROSTATICS
Info: PLACING ATOMS IN PATCHES BY HYDROGEN GROUPS
Info: RIGID BONDS TO HYDROGEN : ALL
Info:         ERROR TOLERANCE : 1e-08
Info:          MAX ITERATIONS : 100
Info: RIGID WATER USING SETTLE ALGORITHM
Info: RANDOM NUMBER SEED     1741320481
Info: USE HYDROGEN BONDS?    NO
Info: Using AMBER format force field!
Info: AMBER PARM FILE        mobley_2410897.prmtop
Info: COORDINATE PDB         mobley_2410897.pdb
Info: Exclusions will be read from PARM file!
Info: SCNB (VDW SCALING)     2
Info: USING ARITHMETIC MEAN TO COMBINE L-J SIGMA PARAMETERS
Info: SUMMARY OF PARAMETERS:
Info: 7 BONDS
Info: 8 ANGLES
Info:   8 HARMONIC
Info:   0 COSINE-BASED
Info: 4 DIHEDRAL
Info: 0 IMPROPER
Info: 0 CROSSTERM
Info: 0 VDW
Info: 28 VDW_PAIRS
Info: 0 NBTHOLE_PAIRS
Info: STRUCTURE SUMMARY:
Info: 4183 ATOMS
Info: 4182 BONDS
Info: 15 ANGLES
Info: 15 DIHEDRALS
Info: 0 IMPROPERS
Info: 0 CROSSTERMS
Info: 4212 EXCLUSIONS
Info: 4180 RIGID BONDS
Info: 8369 DEGREES OF FREEDOM
Info: 1394 HYDROGEN GROUPS
Info: 4 ATOMS IN LARGEST HYDROGEN GROUP
Info: 1394 MIGRATION GROUPS
Info: 4 ATOMS IN LARGEST MIGRATION GROUP
Info: TOTAL MASS = 25105.3 amu
Info: TOTAL CHARGE = -0.000100013 e
Info: MASS DENSITY = 0.703842 g/cm^3
Info: ATOM DENSITY = 0.0706216 atoms/A^3
Info: ADDED 0 IMPLICIT EXCLUSIONS
Info: NONBONDED TABLE R-SQUARED SPACING: 0.0625
Info: NONBONDED TABLE SIZE: 705 POINTS
Info: REMOVING COM VELOCITY 0.00218142 0.155047 0.0774028
TCL: Minimizing for 2000 steps
ETITLE: TS BOND ANGLE DIHED IMPRP ELECT VDW BOUNDARY MISC KINETIC TOTAL TEMP POTENTIAL TOTAL3 TEMPAVG PRESSURE GPRESSURE VOLUME PRESSAVG GPRESSAVG
ENERGY: 0 0.6406 5.5515 1.0763 0.0000 -12802.8926 1449.0566 0.0000 0.0000 0.0000 -11346.5675 0.0000 -11346.5675 -11346.5675 0.0000 10627.8206 -15225.0822 59231.1335 10627.8206 -15225.0822
ENERGY: 400 0.9453 1.1257 0.1097 0.0000 -17718.3889 2739.2825 0.0000 0.0000 0.0000 -14976.9257 0.0000 -14976.9257 -14976.9257 0.0000 16311.6886 16426.3459 59231.1335 16311.6886 16426.3459
ENERGY: 800 0.6968 1.2457 0.1237 0.0000 -18501.0217 3011.7979 0.0000 0.0000 0.0000 -15487.1576 0.0000 -15487.1576 -15487.1576 0.0000 17860.2685 17979.7265 59231.1335 17860.2685 17979.7265
ENERGY: 1200 4.4238 2.8293 0.0651 0.0000 -18895.5597 3176.1790 0.0000 0.0000 0.0000 -15712.0625 0.0000 -15712.0625 -15712.0625 0.0000 18843.3671 18939.0484 59231.1335 18843.3671 18939.0484
ENERGY: 1600 1.5066 1.7207 0.1302 0.0000 -19124.4093 3275.2583 0.0000 0.0000 0.0000 -15845.7936 0.0000 -15845.7936 -15845.7936 0.0000 19418.6697 19483.8700 59231.1335 19418.6697 19483.8700
ENERGY: 2000 0.0489 0.6608 0.0869 0.0000 -19243.4293 3328.8490 0.0000 0.0000 0.0000 -15913.7836 0.0000 -15913.7836 -15913.7836 0.0000 19718.2877 19794.5682 59231.1335 19718.2877 19794.5682
TCL: Exiting due to exit command.
Info: NAMD 3.0.1 for Linux-x86_64-multicore
Info: Please visit http://www.ks.uiuc.edu/Research/namd/
Info: for updates, documentation, and support information.
Info: Please cite Phillips et al., J. Chem. Phys. 153:044130 (2020) doi:10.1063/5.0014475
Info: in all publications reporting results obtained with NAMD.
Info: Based on Charm++/Converse 80000 for multicore-linux-x86_64-gcc
Info: Built Mon Oct 14 11:11:06 CDT 2024 by dhardy on athine.ks.uiuc.edu
Info: 1 NAMD  3.0.1  Linux-x86_64-multicore  16    k062  z5358697
Info: Running on 16 processors, 1 nodes, 1 physical nodes.
Info: CPU topology information available.
Info: Charm++/Converse parallel runtime startup completed at 0.0094879 s
Info: 1043.46 MB of memory in use based on /proc/self/stat
Info: Configuration file is mobley_2410897_equil.namd
Info: Working in the current directory /srv/scratch/z5358697/prod_prep_2/2410897
TCL: Running 25000 steps at 30 kelvin.
TCL: Suspending until startup complete.
Info: SIMULATION PARAMETERS:
Info: TIMESTEP               2
Info: NUMBER OF STEPS        0
Info: STEPS PER CYCLE        10
Info: PERIODIC CELL BASIS 1  39.456 0 0
Info: PERIODIC CELL BASIS 2  0 39.115 0
Info: PERIODIC CELL BASIS 3  0 0 38.379
Info: PERIODIC CELL CENTER   0 0 0
Info: WRAPPING WATERS AROUND PERIODIC BOUNDARIES ON OUTPUT.
Info: WRAPPING ALL CLUSTERS AROUND PERIODIC BOUNDARIES ON OUTPUT.
Info: FIRST LDB TIMESTEP     50
Info: LAST LDB TIMESTEP     -1
Info: HOM BACKGROUND SCALING 1
Info: PME BACKGROUND SCALING 1
Info: MIN ATOMS PER PATCH    40
Info: EMPTY PATCH LOAD       40 ATOMS
Info: INITIAL TEMPERATURE    300
Info: CENTER OF MASS MOVING INITIALLY? NO
Info: DIELECTRIC             1
Info: EXCLUDE                SCALED ONE-FOUR
Info: 1-4 ELECTROSTATICS SCALED BY 0.833333
Info: MODIFIED 1-4 VDW PARAMETERS WILL BE USED
Info: DCD FILENAME           mobley_2410897_equil.dcd
Info: DCD FREQUENCY          5000
Info: DCD FIRST STEP         5000
Info: DCD FILE WILL CONTAIN UNIT CELL DATA
Info: XST FILENAME           mobley_2410897_equil.xst
Info: XST FREQUENCY          5000
Info: NO VELOCITY DCD OUTPUT
Info: NO FORCE DCD OUTPUT
Info: OUTPUT FILENAME        mobley_2410897_equil
Info: BINARY OUTPUT FILES WILL BE USED
Info: RESTART FILENAME       mobley_2410897_equil.restart
Info: RESTART FREQUENCY      5000
Info: BINARY RESTART FILES WILL BE USED
Info: CUTOFF                 9
Info: PAIRLIST DISTANCE      11
Info: PAIRLIST SHRINK RATE   0.01
Info: PAIRLIST GROW RATE     0.01
Info: PAIRLIST TRIGGER       0.3
Info: PAIRLISTS PER CYCLE    2
Info: PAIRLISTS ENABLED
Info: MARGIN                 8
Info: HYDROGEN GROUP CUTOFF  2.5
Info: PATCH DIMENSION        21.5
Info: ENERGY OUTPUT STEPS    5000
Info: ENERGY EVALUATION STEPS    5000
Info: OUTPUT ENERGY PRECISION 4
Info: CROSSTERM ENERGY INCLUDED IN DIHEDRAL
Info: TIMING OUTPUT STEPS    50000
Info: PRESSURE OUTPUT STEPS  5000
Info: LANGEVIN DYNAMICS ACTIVE
Info: LANGEVIN TEMPERATURE   30
Info: LANGEVIN USING BBK INTEGRATOR
Info: LANGEVIN DAMPING COEFFICIENT IS 1 INVERSE PS
Info: LANGEVIN DYNAMICS APPLIED TO HYDROGENS
Info: LANGEVIN PISTON PRESSURE CONTROL ACTIVE
Info:        TARGET PRESSURE IS 1.01325 BAR
Info:     OSCILLATION PERIOD IS 50 FS
Info:             DECAY TIME IS 25 FS
Info:     PISTON TEMPERATURE IS 300 K
Info:       PRESSURE CONTROL IS GROUP-BASED
Info:    INITIAL STRAIN RATE IS 0 0 0
Info:       CELL FLUCTUATION IS ISOTROPIC
Info: PARTICLE MESH EWALD (PME) ACTIVE
Info: PME TOLERANCE               1e-06
Info: PME EWALD COEFFICIENT       0.348832
Info: PME INTERPOLATION ORDER     4
Info: PME GRID DIMENSIONS         40 40 40
Info: PME MAXIMUM GRID SPACING    1
Info: FULL ELECTROSTATIC EVALUATION FREQUENCY      2
Info: USING VERLET I (r-RESPA) MTS SCHEME.
Info: C1 SPLITTING OF LONG RANGE ELECTROSTATICS
Info: PLACING ATOMS IN PATCHES BY HYDROGEN GROUPS
Info: RIGID BONDS TO HYDROGEN : ALL
Info:         ERROR TOLERANCE : 1e-08
Info:          MAX ITERATIONS : 100
Info: RIGID WATER USING SETTLE ALGORITHM
Info: RANDOM NUMBER SEED     1741320497
Info: USE HYDROGEN BONDS?    NO
Info: Using AMBER format force field!
Info: AMBER PARM FILE        mobley_2410897.prmtop
Info: COORDINATE PDB         mobley_2410897.pdb
Info: Exclusions will be read from PARM file!
Info: SCNB (VDW SCALING)     2
Info: USING ARITHMETIC MEAN TO COMBINE L-J SIGMA PARAMETERS
Info: BINARY COORDINATES     mobley_2410897_min.coor
Info: SUMMARY OF PARAMETERS:
Info: 7 BONDS
Info: 8 ANGLES
Info:   8 HARMONIC
Info:   0 COSINE-BASED
Info: 4 DIHEDRAL
Info: 0 IMPROPER
Info: 0 CROSSTERM
Info: 0 VDW
Info: 28 VDW_PAIRS
Info: 0 NBTHOLE_PAIRS
Info: STRUCTURE SUMMARY:
Info: 4183 ATOMS
Info: 4182 BONDS
Info: 15 ANGLES
Info: 15 DIHEDRALS
Info: 0 IMPROPERS
Info: 0 CROSSTERMS
Info: 4212 EXCLUSIONS
Info: 4180 RIGID BONDS
Info: 8369 DEGREES OF FREEDOM
Info: 1394 HYDROGEN GROUPS
Info: 4 ATOMS IN LARGEST HYDROGEN GROUP
Info: 1394 MIGRATION GROUPS
Info: 4 ATOMS IN LARGEST MIGRATION GROUP
Info: TOTAL MASS = 25105.3 amu
Info: TOTAL CHARGE = -0.000100013 e
Info: MASS DENSITY = 0.703842 g/cm^3
Info: ATOM DENSITY = 0.0706216 atoms/A^3
Info: ADDED 0 IMPLICIT EXCLUSIONS
Info: NONBONDED TABLE R-SQUARED SPACING: 0.0625
Info: NONBONDED TABLE SIZE: 705 POINTS
Info: REMOVING COM VELOCITY -0.0910172 0.0398201 -0.00583452
TCL: Running for 25000 steps
ETITLE: TS BOND ANGLE DIHED IMPRP ELECT VDW BOUNDARY MISC KINETIC TOTAL TEMP POTENTIAL TOTAL3 TEMPAVG PRESSURE GPRESSURE VOLUME PRESSAVG GPRESSAVG
ENERGY: 0 0.0489 0.6608 0.0869 0.0000 -19243.4293 3328.8490 0.0000 0.0000 2469.4055 -13444.3781 296.9677 -15913.7836 -13443.8971 296.9677 237.7937 278.4536 59231.1335 237.7937 278.4536
ENERGY: 5000 0.0015 0.5797 0.2023 0.0000 -19876.7302 3304.7229 0.0000 0.0000 253.9947 -16317.2291 30.5451 -16571.2238 -16316.4848 47.2975 -1050.7418 -1001.6357 41462.1941 -1.8319 -1.7400
ENERGY: 10000 0.0286 0.8364 0.0979 0.0000 -19928.1894 3333.0880 0.0000 0.0000 257.2510 -16336.8875 30.9367 -16594.1385 -16336.5204 30.4307 -903.5268 -859.0844 41361.3999 4.9704 5.0620
ENERGY: 15000 0.1039 0.9067 0.1691 0.0000 -20138.9942 3515.7086 0.0000 0.0000 254.5049 -16367.6010 30.6065 -16622.1059 -16366.7985 30.1630 146.7904 175.4288 41005.8212 7.5125 7.5912
ENERGY: 20000 0.1533 0.4656 0.1167 0.0000 -20136.8109 3509.0985 0.0000 0.0000 249.0418 -16377.9351 29.9495 -16626.9769 -16377.2261 30.1085 25.4298 80.5009 41013.3100 4.2445 4.3771
ENERGY: 25000 0.0211 1.5801 0.1582 0.0000 -20195.1624 3564.3165 0.0000 0.0000 251.3396 -16377.7470 30.2258 -16629.0866 -16377.0745 29.9678 391.7278 437.9738 40968.3118 1.2731 1.1020
TCL: Running 25000 steps at 60 kelvin.
TCL: Setting parameter langevinTemp to 60
TCL: Running for 25000 steps
ETITLE: TS BOND ANGLE DIHED IMPRP ELECT VDW BOUNDARY MISC KINETIC TOTAL TEMP POTENTIAL TOTAL3 TEMPAVG PRESSURE GPRESSURE VOLUME PRESSAVG GPRESSAVG
ENERGY: 25000 0.0211 1.5801 0.1582 0.0000 -20195.1624 3564.3165 0.0000 0.0000 251.2192 -16377.8674 30.2113 -16629.0866 -16377.2899 30.2113 385.1848 437.8717 40968.3118 385.1848 437.8717
ENERGY: 30000 0.2066 1.6078 0.2633 0.0000 -19622.2223 3214.1142 0.0000 0.0000 518.2387 -15887.7918 62.3228 -16406.0305 -15885.7845 57.1780 -1174.9906 -1108.1957 41599.5314 5.3658 5.5400
ENERGY: 35000 0.0398 1.6413 0.1966 0.0000 -19813.3420 3369.7796 0.0000 0.0000 504.1028 -15937.5820 60.6228 -16441.6848 -15935.6960 60.7756 -333.9628 -278.1081 41347.5070 -1.0251 -1.0505
ENERGY: 40000 0.1199 1.3050 0.1057 0.0000 -19896.0690 3445.3472 0.0000 0.0000 498.7553 -15950.4359 59.9797 -16449.1912 -15949.1356 60.2915 82.0617 104.6342 41375.9629 0.3613 0.4613
ENERGY: 45000 0.0460 1.1464 0.2635 0.0000 -19948.1325 3476.4923 0.0000 0.0000 491.4386 -15978.7456 59.0998 -16470.1842 -15977.7604 60.0108 222.5516 285.4003 41113.4730 1.1604 1.3056
ENERGY: 50000 0.1520 1.8113 0.1811 0.0000 -19984.2495 3502.9161 0.0000 0.0000 488.1088 -15991.0802 58.6994 -16479.1890 -15989.7442 60.3572 449.5660 471.5094 41007.7986 5.5608 5.0540
TCL: Running 25000 steps at 90 kelvin.
TCL: Setting parameter langevinTemp to 90
TCL: Running for 25000 steps
ETITLE: TS BOND ANGLE DIHED IMPRP ELECT VDW BOUNDARY MISC KINETIC TOTAL TEMP POTENTIAL TOTAL3 TEMPAVG PRESSURE GPRESSURE VOLUME PRESSAVG GPRESSAVG
ENERGY: 50000 0.1520 1.8113 0.1811 0.0000 -19984.2495 3502.9161 0.0000 0.0000 487.8628 -15991.3262 58.6698 -16479.1890 -15990.4230 58.6698 412.2860 471.5943 41007.7986 412.2860 471.5943
ENERGY: 55000 0.2100 3.0511 0.3081 0.0000 -19517.8037 3291.3647 0.0000 0.0000 758.0421 -15464.8277 91.1612 -16222.8698 -15462.4918 87.0807 -204.1582 -134.6970 41285.5896 4.9952 4.6656
ENERGY: 60000 0.1878 1.9708 1.0134 0.0000 -19628.9748 3345.8001 0.0000 0.0000 759.6825 -15520.3201 91.3585 -16280.0027 -15518.6533 91.3789 57.9730 99.4406 41199.3975 5.4061 5.3201
ENERGY: 65000 0.2814 1.6988 0.1895 0.0000 -19514.0996 3222.0966 0.0000 0.0000 736.5571 -15553.2761 88.5775 -16289.8332 -15551.6743 89.6333 -790.5273 -741.0378 41468.5561 2.7642 2.5672
ENERGY: 70000 0.0500 1.2460 0.5913 0.0000 -19795.4695 3467.0252 0.0000 0.0000 760.6158 -15565.9412 91.4707 -16326.5571 -15563.1752 90.4292 687.2189 716.7082 41119.7280 2.6809 2.8512
ENERGY: 75000 0.0598 1.8098 0.1926 0.0000 -19570.2802 3265.7577 0.0000 0.0000 758.6806 -15543.7798 91.2380 -16302.4603 -15542.4056 90.7707 -616.0997 -561.9873 41636.9762 1.7852 1.8681
TCL: Running 25000 steps at 120 kelvin.
TCL: Setting parameter langevinTemp to 120
TCL: Running for 25000 steps
ETITLE: TS BOND ANGLE DIHED IMPRP ELECT VDW BOUNDARY MISC KINETIC TOTAL TEMP POTENTIAL TOTAL3 TEMPAVG PRESSURE GPRESSURE VOLUME PRESSAVG GPRESSAVG
ENERGY: 75000 0.0598 1.8098 0.1926 0.0000 -19570.2802 3265.7577 0.0000 0.0000 758.2927 -15544.1676 91.1914 -16302.4603 -15542.4730 91.1914 -607.1577 -562.2667 41636.9762 -607.1577 -562.2667
ENERGY: 80000 0.2138 2.5332 0.1744 0.0000 -19364.6110 3290.6575 0.0000 0.0000 1005.2953 -15065.7367 120.8956 -16071.0320 -15063.7947 117.3358 249.0588 302.9853 41368.0356 4.9946 5.3501
ENERGY: 85000 0.9709 2.3840 0.5943 0.0000 -19347.5097 3258.0392 0.0000 0.0000 976.6058 -15108.9155 117.4454 -16085.5212 -15107.6514 119.5778 115.9607 167.3802 41045.0647 -3.2732 -3.7010
ENERGY: 90000 0.1727 1.4794 0.1023 0.0000 -19444.2377 3332.4760 0.0000 0.0000 954.3939 -15155.6135 114.7742 -16110.0073 -15153.2811 119.9623 313.0808 405.4700 41270.8455 2.6632 2.9997
ENERGY: 95000 0.2062 1.9477 0.4724 0.0000 -19307.4736 3181.4050 0.0000 0.0000 1003.5049 -15119.9375 120.6803 -16123.4424 -15117.8385 119.8581 -483.3656 -468.0905 41548.2791 8.2121 8.4121
ENERGY: 100000 0.0047 2.4489 0.5575 0.0000 -19553.6121 3400.5201 0.0000 0.0000 1002.0729 -15148.0080 120.5081 -16150.0809 -15146.3640 120.7259 715.9278 770.7316 41050.5851 6.1583 6.4444
TCL: Running 25000 steps at 150 kelvin.
TCL: Setting parameter langevinTemp to 150
TCL: Running for 25000 steps
ETITLE: TS BOND ANGLE DIHED IMPRP ELECT VDW BOUNDARY MISC KINETIC TOTAL TEMP POTENTIAL TOTAL3 TEMPAVG PRESSURE GPRESSURE VOLUME PRESSAVG GPRESSAVG
ENERGY: 100000 0.0047 2.4489 0.5575 0.0000 -19553.6121 3400.5201 0.0000 0.0000 1001.5724 -15148.5085 120.4479 -16150.0809 -15146.4575 120.4479 724.7824 770.2961 41050.5851 724.7824 770.2961
ENERGY: 105000 0.1731 1.4034 0.2801 0.0000 -18970.0191 3118.6171 0.0000 0.0000 1289.7229 -14559.8225 155.1005 -15849.5454 -14557.0231 146.9076 -235.7516 -166.6138 41653.5627 10.1395 10.0539
ENERGY: 110000 0.6633 1.1100 0.1402 0.0000 -18988.7117 3125.7884 0.0000 0.0000 1252.9121 -14608.0977 150.6737 -15861.0098 -14604.6166 151.0488 -259.4109 -190.1527 41564.4239 0.9913 2.0311
ENERGY: 115000 0.5884 3.0886 0.4441 0.0000 -19036.7843 3169.3934 0.0000 0.0000 1266.6703 -14596.5995 152.3282 -15863.2698 -14594.0094 149.6715 -8.5564 24.1969 41435.5946 1.3893 1.2751
ENERGY: 120000 0.1065 2.9933 0.3884 0.0000 -19036.7880 3098.7294 0.0000 0.0000 1268.6154 -14665.9549 152.5622 -15934.5703 -14663.1749 150.4695 -610.4137 -494.7665 41597.5523 2.3896 1.9428
ENERGY: 125000 0.0983 1.0784 0.1624 0.0000 -18999.5370 3046.4385 0.0000 0.0000 1237.4962 -14714.2632 148.8198 -15951.7594 -14709.8359 149.6022 -964.5324 -937.3418 41546.2260 4.7271 4.3828
TCL: Running 50000 steps at 180 kelvin.
TCL: Setting parameter langevinTemp to 180
TCL: Running for 50000 steps
ETITLE: TS BOND ANGLE DIHED IMPRP ELECT VDW BOUNDARY MISC KINETIC TOTAL TEMP POTENTIAL TOTAL3 TEMPAVG PRESSURE GPRESSURE VOLUME PRESSAVG GPRESSAVG
ENERGY: 125000 0.0983 1.0784 0.1624 0.0000 -18999.5370 3046.4385 0.0000 0.0000 1236.8880 -14714.8715 148.7466 -15951.7594 -14712.1436 148.7466 -991.4869 -937.2381 41546.2260 -991.4869 -937.2381
ENERGY: 135000 0.1432 2.5119 0.6581 0.0000 -18525.8244 2985.8789 0.0000 0.0000 1533.7337 -14002.8987 184.4450 -15536.6324 -13998.3140 180.8262 -48.6613 -9.1356 41226.2040 -1.3282 -1.2690
ENERGY: 145000 0.0541 4.1652 0.1395 0.0000 -18574.8257 3054.5423 0.0000 0.0000 1543.5881 -13972.3365 185.6300 -15515.9246 -13967.9841 180.1962 368.6778 423.0966 41196.1185 4.5660 4.1536
ENERGY: 155000 0.0147 2.9895 0.2962 0.0000 -18545.8407 2960.7189 0.0000 0.0000 1483.9214 -14097.8999 178.4546 -15581.8213 -14093.5489 179.8714 -211.6776 -116.4505 40717.9499 4.9654 4.8579
ENERGY: 165000 0.2615 2.2707 0.2087 0.0000 -18515.7231 3009.2880 0.0000 0.0000 1476.0202 -14027.6739 177.5044 -15503.6941 -14024.6920 180.6373 -28.4902 52.3107 41223.6424 2.0935 1.3714
ENERGY: 175000 0.0936 4.5817 0.4769 0.0000 -18816.2725 3202.8816 0.0000 0.0000 1477.9722 -14130.2665 177.7391 -15608.2388 -14127.5637 178.6829 1328.1527 1380.0986 40142.3570 5.1025 4.5329
TCL: Running 50000 steps at 210 kelvin.
TCL: Setting parameter langevinTemp to 210
TCL: Running for 50000 steps
ETITLE: TS BOND ANGLE DIHED IMPRP ELECT VDW BOUNDARY MISC KINETIC TOTAL TEMP POTENTIAL TOTAL3 TEMPAVG PRESSURE GPRESSURE VOLUME PRESSAVG GPRESSAVG
ENERGY: 175000 0.0936 4.5817 0.4769 0.0000 -18816.2725 3202.8816 0.0000 0.0000 1477.2183 -14131.0204 177.6485 -15608.2388 -14128.7914 177.6485 1324.7965 1378.5393 40142.3570 1324.7965 1378.5393
ENERGY: 185000 0.1925 2.5629 0.6271 0.0000 -17644.5924 2658.1085 0.0000 0.0000 1710.3142 -13272.7872 205.6803 -14983.1015 -13270.4754 207.6669 -633.8878 -535.1806 41318.6761 6.4195 5.7313
ENERGY: 195000 0.2293 5.1753 0.3193 0.0000 -17498.4155 2536.5898 0.0000 0.0000 1723.9167 -13232.1852 207.3161 -14956.1018 -13228.2446 210.1041 -897.8815 -879.7031 40923.3586 7.0819 7.1229
ENERGY: 205000 1.0680 1.6575 0.1721 0.0000 -17704.6137 2698.0398 0.0000 0.0000 1743.2624 -13260.4139 209.6426 -15003.6763 -13258.9262 208.1495 -142.1675 -121.2397 40766.8841 -1.5744 -2.0180
ENERGY: 215000 0.1259 3.6785 0.2112 0.0000 -17653.3041 2679.6463 0.0000 0.0000 1750.1984 -13219.4438 210.4767 -14969.6422 -13216.0880 209.5246 -86.5460 0.1433 40537.3378 7.6151 7.3066
ENERGY: 225000 0.2887 1.4976 0.0999 0.0000 -17688.8350 2808.6192 0.0000 0.0000 1705.7364 -13172.5931 205.1298 -14878.3295 -13170.2117 210.1829 727.8619 811.1014 40595.3109 3.0467 3.5474
TCL: Running 50000 steps at 240 kelvin.
TCL: Setting parameter langevinTemp to 240
TCL: Running for 50000 steps
ETITLE: TS BOND ANGLE DIHED IMPRP ELECT VDW BOUNDARY MISC KINETIC TOTAL TEMP POTENTIAL TOTAL3 TEMPAVG PRESSURE GPRESSURE VOLUME PRESSAVG GPRESSAVG
ENERGY: 225000 0.2887 1.4976 0.0999 0.0000 -17688.8350 2808.6192 0.0000 0.0000 1704.8896 -13173.4400 205.0280 -14878.3295 -13170.0595 205.0280 741.7665 808.9536 40595.3109 741.7665 808.9536
ENERGY: 235000 0.7053 4.4792 0.5985 0.0000 -16627.4974 2335.7762 0.0000 0.0000 2010.2374 -12275.7008 241.7487 -14285.9382 -12271.9050 242.7569 -703.9553 -579.8129 41448.8235 0.8509 0.5847
ENERGY: 245000 0.3382 4.7028 0.2620 0.0000 -16903.1615 2560.1140 0.0000 0.0000 1954.5217 -12383.2226 235.0484 -14337.7444 -12379.0054 241.5138 756.7758 800.8734 40653.1590 0.7535 0.2605
ENERGY: 255000 0.2308 5.8503 0.7187 0.0000 -16642.7471 2339.3317 0.0000 0.0000 1983.7346 -12312.8811 238.5615 -14296.6157 -12310.0176 239.9324 -689.3398 -650.5759 41575.6955 1.2302 1.2451
ENERGY: 265000 0.0287 3.4241 0.5895 0.0000 -16598.5254 2351.6816 0.0000 0.0000 1966.1603 -12276.6412 236.4480 -14242.8015 -12271.9878 240.4206 -311.8580 -148.4878 40857.1823 6.3539 6.5362
ENERGY: 275000 0.0224 3.1510 0.2587 0.0000 -16659.4441 2376.5400 0.0000 0.0000 1988.9709 -12290.5010 239.1912 -14279.4719 -12286.7343 240.4519 -205.5350 -101.2896 41135.5024 2.9204 1.8111
TCL: Running 50000 steps at 270 kelvin.
TCL: Setting parameter langevinTemp to 270
TCL: Running for 50000 steps
ETITLE: TS BOND ANGLE DIHED IMPRP ELECT VDW BOUNDARY MISC KINETIC TOTAL TEMP POTENTIAL TOTAL3 TEMPAVG PRESSURE GPRESSURE VOLUME PRESSAVG GPRESSAVG
ENERGY: 275000 0.0224 3.1510 0.2587 0.0000 -16659.4441 2376.5400 0.0000 0.0000 1987.9897 -12291.4822 239.0732 -14279.4719 -12288.3528 239.0732 -183.6173 -101.6427 41135.5024 -183.6173 -101.6427
ENERGY: 285000 0.1373 8.7874 2.5804 0.0000 -15977.5293 2257.9061 0.0000 0.0000 2272.8761 -11435.2419 273.3333 -13708.1181 -11431.8542 270.8873 53.3488 156.4376 42030.2123 -0.4287 -0.1033
ENERGY: 295000 1.3052 3.5669 0.1907 0.0000 -15992.1800 2250.6617 0.0000 0.0000 2217.9562 -11518.4994 266.7287 -13736.4556 -11517.0758 269.1152 206.9272 304.1904 41501.0268 3.4402 2.9236
ENERGY: 305000 0.2237 2.2746 0.1838 0.0000 -15960.2682 2136.0224 0.0000 0.0000 2208.3775 -11613.1862 265.5768 -13821.5637 -11609.1812 269.8914 -575.2999 -475.4826 41428.6206 3.8675 4.0907
ENERGY: 315000 0.1567 4.2227 0.6505 0.0000 -16073.6022 2307.1744 0.0000 0.0000 2222.2577 -11539.1402 267.2460 -13761.3979 -11535.0420 269.2841 437.7782 514.6845 41826.1573 7.9676 8.0273
ENERGY: 325000 0.0212 3.3548 0.2507 0.0000 -15991.4545 2262.0591 0.0000 0.0000 2263.4287 -11462.3400 272.1972 -13725.7687 -11457.7970 269.7245 221.3211 320.1963 41735.6471 0.7980 -0.0951
TCL: Running 1000000 steps at 300 kelvin.
TCL: Setting parameter langevinTemp to 300
TCL: Running for 1000000 steps
ETITLE: TS BOND ANGLE DIHED IMPRP ELECT VDW BOUNDARY MISC KINETIC TOTAL TEMP POTENTIAL TOTAL3 TEMPAVG PRESSURE GPRESSURE VOLUME PRESSAVG GPRESSAVG
ENERGY: 325000 0.0212 3.3548 0.2507 0.0000 -15991.4545 2262.0591 0.0000 0.0000 2262.3024 -11463.4663 272.0617 -13725.7687 -11459.6293 272.0617 235.5302 320.5937 41735.6471 235.5302 320.5937
ENERGY: 525000 0.8370 2.4328 1.2852 0.0000 -15382.4842 2149.2419 0.0000 0.0000 2500.0812 -10728.6061 300.6567 -13228.6873 -10726.1473 300.7546 295.0887 359.6421 42911.6550 8.0144 7.9985
ENERGY: 725000 0.6513 4.6882 0.9728 0.0000 -15066.3638 1948.9153 0.0000 0.0000 2506.5541 -10604.5822 301.4352 -13111.1363 -10597.7964 303.2187 -452.7552 -406.6947 43039.2012 2.0658 3.4612
ENERGY: 925000 1.1776 2.2198 0.0909 0.0000 -15167.0226 2025.3036 0.0000 0.0000 2493.9482 -10644.2825 299.9192 -13138.2306 -10637.7154 301.8127 -115.1068 -17.4424 43392.0832 3.0772 3.1055
ENERGY: 1125000 0.6241 6.2287 0.1168 0.0000 -15189.5376 2064.9135 0.0000 0.0000 2490.7962 -10626.8582 299.5401 -13117.6545 -10621.8487 300.8563 177.1048 214.9031 43044.1117 -1.6797 -1.1624
ENERGY: 1325000 1.1262 5.7485 0.8997 0.0000 -15111.2903 1978.4332 0.0000 0.0000 2533.0374 -10592.0453 304.6200 -13125.0827 -10585.1356 301.0092 -445.4661 -351.8809 43465.9058 1.9787 2.4527
TCL: Exiting due to exit command.
