Info: SIMULATION PARAMETERS:
Info: TIMESTEP               2
Info: NUMBER OF STEPS        0
Info: STEPS PER CYCLE        10
Info: PERIODIC CELL BASIS 1  41.027 0 0
Info: PERIODIC CELL BASIS 2  0 45.083 0
Info: PERIODIC CELL BASIS 3  0 0 42.851
Info: PERIODIC CELL CENTER   0 0 0
Info: WRAPPING WATERS AROUND PERIODIC BOUNDARIES ON OUTPUT.
Info: WRAPPING ALL CLUSTERS AROUND PERIODIC BOUNDARIES ON OUTPUT.
Info: FIRST LDB TIMESTEP     50
Info: LAST LDB TIMESTEP     -1
Info: HOM BACKGROUND SCALING 1
Info: PME BACKGROUND SCALING 1
Info: MIN ATOMS PER PATCH    40
Info: EMPTY PATCH LOAD       40 ATOMS
Info: INITIAL TEMPERATURE    300
Info: CENTER OF MASS MOVING INITIALLY? NO
Info: DIELECTRIC             1
Info: EXCLUDE                SCALED ONE-FOUR
Info: 1-4 ELECTROSTATICS SCALED BY 0.833333
Info: MODIFIED 1-4 VDW PARAMETERS WILL BE USED
Info: DCD FILENAME           mobley_3525176_min.dcd
Info: DCD FREQUENCY          5000
Info: DCD FIRST STEP         5000
Info: DCD FILE WILL CONTAIN UNIT CELL DATA
Info: XST FILENAME           mobley_3525176_min.xst
Info: XST FREQUENCY          5000
Info: NO VELOCITY DCD OUTPUT
Info: NO FORCE DCD OUTPUT
Info: OUTPUT FILENAME        mobley_3525176_min
Info: BINARY OUTPUT FILES WILL BE USED
Info: RESTART FILENAME       mobley_3525176_min.restart
Info: RESTART FREQUENCY      5000
Info: BINARY RESTART FILES WILL BE USED
Info: CUTOFF                 9
Info: PAIRLIST DISTANCE      11
Info: PAIRLIST SHRINK RATE   0.01
Info: PAIRLIST GROW RATE     0.01
Info: PAIRLIST TRIGGER       0.3
Info: PAIRLISTS PER CYCLE    2
Info: PAIRLISTS ENABLED
Info: MARGIN                 8
Info: HYDROGEN GROUP CUTOFF  2.5
Info: PATCH DIMENSION        21.5
Info: ENERGY OUTPUT STEPS    5000
Info: ENERGY EVALUATION STEPS    5000
Info: OUTPUT ENERGY PRECISION 4
Info: CROSSTERM ENERGY INCLUDED IN DIHEDRAL
Info: TIMING OUTPUT STEPS    50000
Info: PRESSURE OUTPUT STEPS  5000
Info: LANGEVIN DYNAMICS ACTIVE
Info: LANGEVIN TEMPERATURE   300
Info: LANGEVIN USING BBK INTEGRATOR
Info: LANGEVIN DAMPING COEFFICIENT IS 1 INVERSE PS
Info: LANGEVIN DYNAMICS APPLIED TO HYDROGENS
Info: LANGEVIN PISTON PRESSURE CONTROL ACTIVE
Info:        TARGET PRESSURE IS 1.01325 BAR
Info:     OSCILLATION PERIOD IS 50 FS
Info:             DECAY TIME IS 25 FS
Info:     PISTON TEMPERATURE IS 300 K
Info:       PRESSURE CONTROL IS GROUP-BASED
Info:    INITIAL STRAIN RATE IS 0 0 0
Info:       CELL FLUCTUATION IS ISOTROPIC
Info: PARTICLE MESH EWALD (PME) ACTIVE
Info: PME TOLERANCE               1e-06
Info: PME EWALD COEFFICIENT       0.348832
Info: PME INTERPOLATION ORDER     4
Info: PME GRID DIMENSIONS         44 48 44
Info: PME MAXIMUM GRID SPACING    1
Info: FULL ELECTROSTATIC EVALUATION FREQUENCY      2
Info: USING VERLET I (r-RESPA) MTS SCHEME.
Info: C1 SPLITTING OF LONG RANGE ELECTROSTATICS
Info: PLACING ATOMS IN PATCHES BY HYDROGEN GROUPS
Info: RIGID BONDS TO HYDROGEN : ALL
Info:         ERROR TOLERANCE : 1e-08
Info:          MAX ITERATIONS : 100
Info: RIGID WATER USING SETTLE ALGORITHM
Info: RANDOM NUMBER SEED     1741341435
Info: USE HYDROGEN BONDS?    NO
Info: Using AMBER format force field!
Info: AMBER PARM FILE        mobley_3525176.prmtop
Info: COORDINATE PDB         mobley_3525176.pdb
Info: Exclusions will be read from PARM file!
Info: SCNB (VDW SCALING)     2
Info: USING ARITHMETIC MEAN TO COMBINE L-J SIGMA PARAMETERS
Info: SUMMARY OF PARAMETERS:
Info: 7 BONDS
Info: 8 ANGLES
Info:   8 HARMONIC
Info:   0 COSINE-BASED
Info: 8 DIHEDRAL
Info: 0 IMPROPER
Info: 0 CROSSTERM
Info: 0 VDW
Info: 21 VDW_PAIRS
Info: 0 NBTHOLE_PAIRS
Info: STRUCTURE SUMMARY:
Info: 5706 ATOMS
Info: 5706 BONDS
Info: 48 ANGLES
Info: 72 DIHEDRALS
Info: 0 IMPROPERS
Info: 0 CROSSTERMS
Info: 5817 EXCLUSIONS
Info: 5695 RIGID BONDS
Info: 11423 DEGREES OF FREEDOM
Info: 1904 HYDROGEN GROUPS
Info: 4 ATOMS IN LARGEST HYDROGEN GROUP
Info: 1904 MIGRATION GROUPS
Info: 4 ATOMS IN LARGEST MIGRATION GROUP
Info: TOTAL MASS = 34252.5 amu
Info: TOTAL CHARGE = 2.6077e-08 e
Info: MASS DENSITY = 0.717643 g/cm^3
Info: ATOM DENSITY = 0.0719927 atoms/A^3
Info: ADDED 0 IMPLICIT EXCLUSIONS
Info: NONBONDED TABLE R-SQUARED SPACING: 0.0625
Info: NONBONDED TABLE SIZE: 705 POINTS
Info: REMOVING COM VELOCITY -0.104562 -0.0184338 0.0577028
TCL: Minimizing for 2000 steps
ETITLE: TS BOND ANGLE DIHED IMPRP ELECT VDW BOUNDARY MISC KINETIC TOTAL TEMP POTENTIAL TOTAL3 TEMPAVG PRESSURE GPRESSURE VOLUME PRESSAVG GPRESSAVG
ENERGY: 0 0.1602 0.4036 0.9895 0.0000 -17842.6995 2028.2529 0.0000 0.0000 0.0000 -15812.8934 0.0000 -15812.8934 -15812.8934 0.0000 11216.5935 -15348.0598 79258.0769 11216.5935 -15348.0598
ENERGY: 400 2.2525 1.6789 1.1845 0.0000 -23653.9920 3313.1002 0.0000 0.0000 0.0000 -20335.7759 0.0000 -20335.7759 -20335.7759 0.0000 15170.9825 9706.5733 79258.0769 15170.9825 9706.5733
ENERGY: 800 23.1020 11.6443 2.6523 0.0000 -25016.8435 4001.0074 0.0000 0.0000 0.0000 -20978.4375 0.0000 -20978.4375 -20978.4375 0.0000 17821.0824 11922.5770 79258.0769 17821.0824 11922.5770
ENERGY: 1200 0.6602 0.4533 1.2250 0.0000 -25639.7297 4334.2845 0.0000 0.0000 0.0000 -21303.1067 0.0000 -21303.1067 -21303.1067 0.0000 19207.3066 13085.9711 79258.0769 19207.3066 13085.9711
ENERGY: 1600 0.3599 0.4590 1.1264 0.0000 -25935.8980 4463.5954 0.0000 0.0000 0.0000 -21470.3574 0.0000 -21470.3574 -21470.3574 0.0000 19751.5511 13593.5583 79258.0769 19751.5511 13593.5583
ENERGY: 2000 0.7139 0.6644 1.0673 0.0000 -26094.1540 4543.5678 0.0000 0.0000 0.0000 -21548.1406 0.0000 -21548.1406 -21548.1406 0.0000 20098.1228 13733.7532 79258.0769 20098.1228 13733.7532
TCL: Exiting due to exit command.
Info: NAMD 3.0.1 for Linux-x86_64-multicore
Info: Please visit http://www.ks.uiuc.edu/Research/namd/
Info: for updates, documentation, and support information.
Info: Please cite Phillips et al., J. Chem. Phys. 153:044130 (2020) doi:10.1063/5.0014475
Info: in all publications reporting results obtained with NAMD.
Info: Based on Charm++/Converse 80000 for multicore-linux-x86_64-gcc
Info: Built Mon Oct 14 11:11:06 CDT 2024 by dhardy on athine.ks.uiuc.edu
Info: 1 NAMD  3.0.1  Linux-x86_64-multicore  16    k133  z5358697
Info: Running on 16 processors, 1 nodes, 1 physical nodes.
Info: CPU topology information available.
Info: Charm++/Converse parallel runtime startup completed at 0.00526559 s
Info: 1043.48 MB of memory in use based on /proc/self/stat
Info: Configuration file is mobley_3525176_equil.namd
Info: Working in the current directory /srv/scratch/z5358697/prod_prep_4/3525176
TCL: Running 25000 steps at 30 kelvin.
TCL: Suspending until startup complete.
Info: SIMULATION PARAMETERS:
Info: TIMESTEP               2
Info: NUMBER OF STEPS        0
Info: STEPS PER CYCLE        10
Info: PERIODIC CELL BASIS 1  41.027 0 0
Info: PERIODIC CELL BASIS 2  0 45.083 0
Info: PERIODIC CELL BASIS 3  0 0 42.851
Info: PERIODIC CELL CENTER   0 0 0
Info: WRAPPING WATERS AROUND PERIODIC BOUNDARIES ON OUTPUT.
Info: WRAPPING ALL CLUSTERS AROUND PERIODIC BOUNDARIES ON OUTPUT.
Info: FIRST LDB TIMESTEP     50
Info: LAST LDB TIMESTEP     -1
Info: HOM BACKGROUND SCALING 1
Info: PME BACKGROUND SCALING 1
Info: MIN ATOMS PER PATCH    40
Info: EMPTY PATCH LOAD       40 ATOMS
Info: INITIAL TEMPERATURE    300
Info: CENTER OF MASS MOVING INITIALLY? NO
Info: DIELECTRIC             1
Info: EXCLUDE                SCALED ONE-FOUR
Info: 1-4 ELECTROSTATICS SCALED BY 0.833333
Info: MODIFIED 1-4 VDW PARAMETERS WILL BE USED
Info: DCD FILENAME           mobley_3525176_equil.dcd
Info: DCD FREQUENCY          5000
Info: DCD FIRST STEP         5000
Info: DCD FILE WILL CONTAIN UNIT CELL DATA
Info: XST FILENAME           mobley_3525176_equil.xst
Info: XST FREQUENCY          5000
Info: NO VELOCITY DCD OUTPUT
Info: NO FORCE DCD OUTPUT
Info: OUTPUT FILENAME        mobley_3525176_equil
Info: BINARY OUTPUT FILES WILL BE USED
Info: RESTART FILENAME       mobley_3525176_equil.restart
Info: RESTART FREQUENCY      5000
Info: BINARY RESTART FILES WILL BE USED
Info: CUTOFF                 9
Info: PAIRLIST DISTANCE      11
Info: PAIRLIST SHRINK RATE   0.01
Info: PAIRLIST GROW RATE     0.01
Info: PAIRLIST TRIGGER       0.3
Info: PAIRLISTS PER CYCLE    2
Info: PAIRLISTS ENABLED
Info: MARGIN                 8
Info: HYDROGEN GROUP CUTOFF  2.5
Info: PATCH DIMENSION        21.5
Info: ENERGY OUTPUT STEPS    5000
Info: ENERGY EVALUATION STEPS    5000
Info: OUTPUT ENERGY PRECISION 4
Info: CROSSTERM ENERGY INCLUDED IN DIHEDRAL
Info: TIMING OUTPUT STEPS    50000
Info: PRESSURE OUTPUT STEPS  5000
Info: LANGEVIN DYNAMICS ACTIVE
Info: LANGEVIN TEMPERATURE   30
Info: LANGEVIN USING BBK INTEGRATOR
Info: LANGEVIN DAMPING COEFFICIENT IS 1 INVERSE PS
Info: LANGEVIN DYNAMICS APPLIED TO HYDROGENS
Info: LANGEVIN PISTON PRESSURE CONTROL ACTIVE
Info:        TARGET PRESSURE IS 1.01325 BAR
Info:     OSCILLATION PERIOD IS 50 FS
Info:             DECAY TIME IS 25 FS
Info:     PISTON TEMPERATURE IS 300 K
Info:       PRESSURE CONTROL IS GROUP-BASED
Info:    INITIAL STRAIN RATE IS 0 0 0
Info:       CELL FLUCTUATION IS ISOTROPIC
Info: PARTICLE MESH EWALD (PME) ACTIVE
Info: PME TOLERANCE               1e-06
Info: PME EWALD COEFFICIENT       0.348832
Info: PME INTERPOLATION ORDER     4
Info: PME GRID DIMENSIONS         44 48 44
Info: PME MAXIMUM GRID SPACING    1
Info: FULL ELECTROSTATIC EVALUATION FREQUENCY      2
Info: USING VERLET I (r-RESPA) MTS SCHEME.
Info: C1 SPLITTING OF LONG RANGE ELECTROSTATICS
Info: PLACING ATOMS IN PATCHES BY HYDROGEN GROUPS
Info: RIGID BONDS TO HYDROGEN : ALL
Info:         ERROR TOLERANCE : 1e-08
Info:          MAX ITERATIONS : 100
Info: RIGID WATER USING SETTLE ALGORITHM
Info: RANDOM NUMBER SEED     1741341451
Info: USE HYDROGEN BONDS?    NO
Info: Using AMBER format force field!
Info: AMBER PARM FILE        mobley_3525176.prmtop
Info: COORDINATE PDB         mobley_3525176.pdb
Info: Exclusions will be read from PARM file!
Info: SCNB (VDW SCALING)     2
Info: USING ARITHMETIC MEAN TO COMBINE L-J SIGMA PARAMETERS
Info: BINARY COORDINATES     mobley_3525176_min.coor
Info: SUMMARY OF PARAMETERS:
Info: 7 BONDS
Info: 8 ANGLES
Info: 8 DIHEDRAL
Info: 0 IMPROPER
Info: 0 CROSSTERM
Info: 0 VDW
Info: 21 VDW_PAIRS
Info: 0 NBTHOLE_PAIRS
Info: STRUCTURE SUMMARY:
Info: 5706 ATOMS
Info: 5706 BONDS
Info: 48 ANGLES
Info: 72 DIHEDRALS
Info: 0 IMPROPERS
Info: 0 CROSSTERMS
Info: 5817 EXCLUSIONS
Info: 5695 RIGID BONDS
Info: 11423 DEGREES OF FREEDOM
Info: 1904 HYDROGEN GROUPS
Info: 4 ATOMS IN LARGEST HYDROGEN GROUP
Info: 1904 MIGRATION GROUPS
Info: 4 ATOMS IN LARGEST MIGRATION GROUP
Info: TOTAL MASS = 34252.5 amu
Info: TOTAL CHARGE = 2.6077e-08 e
Info: MASS DENSITY = 0.717643 g/cm^3
Info: ATOM DENSITY = 0.0719927 atoms/A^3
Info: ADDED 0 IMPLICIT EXCLUSIONS
Info: NONBONDED TABLE R-SQUARED SPACING: 0.0625
Info: NONBONDED TABLE SIZE: 705 POINTS
Info: REMOVING COM VELOCITY 0.119963 -0.000192995 0.0157821
TCL: Running for 25000 steps
ETITLE: TS BOND ANGLE DIHED IMPRP ELECT VDW BOUNDARY MISC KINETIC TOTAL TEMP POTENTIAL TOTAL3 TEMPAVG PRESSURE GPRESSURE VOLUME PRESSAVG GPRESSAVG
ENERGY: 0 0.7139 0.6644 1.0673 0.0000 -26094.1540 4543.5678 0.0000 0.0000 3388.3250 -18159.8157 298.5350 -21548.1406 -18159.1019 298.5350 389.1462 429.2362 79258.0769 389.1462 429.2362
ENERGY: 5000 0.8943 1.4593 1.3304 0.0000 -27161.5995 4623.4393 0.0000 0.0000 339.3639 -22195.1123 29.9003 -22534.4762 -22194.0390 47.8208 -395.0699 -334.5516 55856.8015 -0.1897 -0.2810
ENERGY: 10000 0.4190 1.3189 1.1452 0.0000 -27461.6115 4836.9885 0.0000 0.0000 344.4366 -22277.3033 30.3473 -22621.7399 -22276.3446 30.4035 427.5326 471.2634 55410.4759 1.2121 1.3781
ENERGY: 15000 0.4829 0.8086 1.4364 0.0000 -27469.8724 4802.8647 0.0000 0.0000 340.3274 -22323.9524 29.9852 -22664.2798 -22323.0744 30.2007 171.4728 229.0702 55442.8645 3.3737 3.4728
ENERGY: 20000 0.5952 0.8550 1.2885 0.0000 -27355.9822 4672.1725 0.0000 0.0000 339.1692 -22341.9018 29.8832 -22681.0710 -22341.3537 30.0849 -418.4011 -366.9100 55649.0180 -0.7615 -0.9159
ENERGY: 25000 0.5710 1.1622 1.3462 0.0000 -27377.5945 4683.6507 0.0000 0.0000 340.2132 -22350.6513 29.9751 -22690.8645 -22349.7810 30.0867 -447.1466 -390.3939 55652.1951 4.7168 4.8569
TCL: Running 25000 steps at 60 kelvin.
TCL: Setting parameter langevinTemp to 60
TCL: Running for 25000 steps
ETITLE: TS BOND ANGLE DIHED IMPRP ELECT VDW BOUNDARY MISC KINETIC TOTAL TEMP POTENTIAL TOTAL3 TEMPAVG PRESSURE GPRESSURE VOLUME PRESSAVG GPRESSAVG
ENERGY: 25000 0.5710 1.1622 1.3462 0.0000 -27377.5945 4683.6507 0.0000 0.0000 340.0392 -22350.8252 29.9598 -22690.8645 -22349.9854 29.9598 -443.5270 -390.3902 55652.1951 -443.5270 -390.3902
ENERGY: 30000 0.8587 2.1080 1.7140 0.0000 -27026.0532 4661.7446 0.0000 0.0000 691.8479 -21667.7800 60.9566 -22359.6279 -21666.1351 57.0272 228.5750 289.3477 55484.1119 7.0999 7.3810
ENERGY: 35000 1.2327 2.1090 1.6964 0.0000 -27080.6472 4649.8000 0.0000 0.0000 689.6878 -21736.1214 60.7663 -22425.8092 -21734.7890 60.2155 45.2221 86.3526 55615.4620 7.0195 7.2529
ENERGY: 40000 0.4448 1.7968 1.7641 0.0000 -27145.0341 4683.0100 0.0000 0.0000 698.5610 -21759.4572 61.5481 -22458.0183 -21757.9009 59.6614 141.9183 190.7559 55539.4124 4.2709 4.1575
ENERGY: 45000 0.4474 2.3828 1.5997 0.0000 -27109.3011 4642.0109 0.0000 0.0000 692.6811 -21770.1792 61.0300 -22462.8602 -21768.4698 60.0279 -96.6630 -29.4623 55619.6830 2.5518 2.6064
ENERGY: 50000 0.9931 2.4165 1.5839 0.0000 -26912.4018 4440.3229 0.0000 0.0000 684.6725 -21782.4129 60.3244 -22467.0854 -21780.2046 59.5373 -1002.3241 -931.7397 55975.2088 -0.1349 0.0639
TCL: Running 25000 steps at 90 kelvin.
TCL: Setting parameter langevinTemp to 90
TCL: Running for 25000 steps
ETITLE: TS BOND ANGLE DIHED IMPRP ELECT VDW BOUNDARY MISC KINETIC TOTAL TEMP POTENTIAL TOTAL3 TEMPAVG PRESSURE GPRESSURE VOLUME PRESSAVG GPRESSAVG
ENERGY: 50000 0.9931 2.4165 1.5839 0.0000 -26912.4018 4440.3229 0.0000 0.0000 684.3270 -21782.7584 60.2940 -22467.0854 -21781.2598 60.2940 -989.5206 -931.6133 55975.2088 -989.5206 -931.6133
ENERGY: 55000 1.6054 2.9283 1.9297 0.0000 -26609.6013 4479.5419 0.0000 0.0000 1031.3790 -21092.2170 90.8717 -22123.5960 -21089.5505 86.4984 -203.4125 -126.6327 55876.0232 2.7983 3.0807
ENERGY: 60000 0.5261 3.2895 2.5965 0.0000 -26837.9319 4667.6420 0.0000 0.0000 1019.3670 -21144.5108 89.8133 -22163.8778 -21141.7285 90.0336 668.0275 705.0565 55541.4479 1.5280 1.6137
ENERGY: 65000 1.8801 3.1942 2.2427 0.0000 -26643.7328 4430.5120 0.0000 0.0000 1044.3426 -21161.5612 92.0139 -22205.9038 -21158.4751 90.0009 -545.7206 -502.5750 55966.1989 1.5794 1.8212
ENERGY: 70000 1.0650 2.4644 2.2707 0.0000 -26812.4423 4583.3047 0.0000 0.0000 1014.8354 -21208.5020 89.4141 -22223.3375 -21206.3635 89.9082 98.6767 141.0300 55844.2167 4.3658 4.6863
ENERGY: 75000 0.3884 3.1746 2.1597 0.0000 -26997.8276 4749.2210 0.0000 0.0000 1009.1263 -21233.7576 88.9111 -22242.8840 -21230.6717 89.5280 853.2552 886.0461 55538.6331 0.9369 0.9418
TCL: Running 25000 steps at 120 kelvin.
TCL: Setting parameter langevinTemp to 120
TCL: Running for 25000 steps
ETITLE: TS BOND ANGLE DIHED IMPRP ELECT VDW BOUNDARY MISC KINETIC TOTAL TEMP POTENTIAL TOTAL3 TEMPAVG PRESSURE GPRESSURE VOLUME PRESSAVG GPRESSAVG
ENERGY: 75000 0.3884 3.1746 2.1597 0.0000 -26997.8276 4749.2210 0.0000 0.0000 1008.6246 -21234.2594 88.8668 -22242.8840 -21232.2224 88.8668 843.8350 886.2561 55538.6331 843.8350 886.2561
ENERGY: 80000 0.6001 4.9303 2.1625 0.0000 -26225.1809 4371.0129 0.0000 0.0000 1389.0594 -20457.4156 122.3858 -21846.4749 -20454.5684 116.4416 -33.2616 10.2404 56076.8286 2.5011 2.9517
ENERGY: 85000 1.2337 4.9217 2.8495 0.0000 -26463.2957 4564.3761 0.0000 0.0000 1363.9683 -20525.9466 120.1751 -21889.9149 -20522.1863 120.1895 699.9005 776.7794 55570.9614 2.4138 2.2283
ENERGY: 90000 0.9132 4.3303 1.9370 0.0000 -26561.0695 4618.4023 0.0000 0.0000 1380.2343 -20555.2525 121.6082 -21935.4868 -20552.7372 120.0279 911.0458 994.4592 55359.4648 1.5980 1.5162
ENERGY: 95000 1.7011 4.0581 4.5342 0.0000 -26425.0417 4485.3677 0.0000 0.0000 1367.7487 -20561.6319 120.5082 -21929.3806 -20558.4444 120.5619 219.8299 273.0546 55849.3125 -0.5431 -0.1041
ENERGY: 100000 1.4880 4.5078 2.5918 0.0000 -26417.1762 4424.5759 0.0000 0.0000 1327.8505 -20656.1623 116.9929 -21984.0128 -20653.6677 120.2859 -113.8608 -57.3453 55749.8095 2.5245 2.1131
TCL: Running 25000 steps at 150 kelvin.
TCL: Setting parameter langevinTemp to 150
TCL: Running for 25000 steps
ETITLE: TS BOND ANGLE DIHED IMPRP ELECT VDW BOUNDARY MISC KINETIC TOTAL TEMP POTENTIAL TOTAL3 TEMPAVG PRESSURE GPRESSURE VOLUME PRESSAVG GPRESSAVG
ENERGY: 100000 1.4880 4.5078 2.5918 0.0000 -26417.1762 4424.5759 0.0000 0.0000 1327.1819 -20656.8309 116.9340 -21984.0128 -20654.1990 116.9340 -108.1251 -57.2956 55749.8095 -108.1251 -57.2956
ENERGY: 105000 1.1119 4.9103 3.3577 0.0000 -25902.3687 4320.8211 0.0000 0.0000 1738.4919 -19833.6759 153.1732 -21572.1678 -19830.2327 146.9578 262.7245 325.4349 55945.0119 5.6606 5.7520
ENERGY: 110000 0.9319 4.9727 3.8416 0.0000 -26080.6499 4452.7902 0.0000 0.0000 1730.7075 -19887.4060 152.4874 -21618.1135 -19881.8146 149.7120 823.1711 888.0341 55564.5789 0.7955 0.1914
ENERGY: 115000 1.9132 7.4722 3.2216 0.0000 -25962.8094 4364.1829 0.0000 0.0000 1675.5238 -19910.4956 147.6253 -21586.0195 -19907.3062 150.2093 367.8326 431.8094 55763.4002 6.5830 6.2458
ENERGY: 120000 1.8538 4.5036 2.2103 0.0000 -25690.3115 4057.9709 0.0000 0.0000 1728.7882 -19894.9848 152.3183 -21623.7730 -19891.8906 150.5381 -945.8062 -907.0725 56198.8573 -0.0188 0.2242
ENERGY: 125000 1.5965 5.3223 2.2614 0.0000 -25896.1678 4214.9395 0.0000 0.0000 1667.5273 -20004.5208 146.9208 -21672.0481 -19999.1797 151.0481 -416.8776 -353.3599 55881.9332 1.7472 2.0851
TCL: Running 50000 steps at 180 kelvin.
TCL: Setting parameter langevinTemp to 180
TCL: Running for 50000 steps
ETITLE: TS BOND ANGLE DIHED IMPRP ELECT VDW BOUNDARY MISC KINETIC TOTAL TEMP POTENTIAL TOTAL3 TEMPAVG PRESSURE GPRESSURE VOLUME PRESSAVG GPRESSAVG
ENERGY: 125000 1.5965 5.3223 2.2614 0.0000 -25896.1678 4214.9395 0.0000 0.0000 1666.6827 -20005.3654 146.8463 -21672.0481 -20001.8268 146.8463 -409.3027 -352.4698 55881.9332 -409.3027 -352.4698
ENERGY: 135000 2.4025 7.2929 3.1182 0.0000 -25096.0606 3947.0853 0.0000 0.0000 2024.4151 -19111.7467 178.3651 -21136.1617 -19107.6321 180.2190 -627.7879 -569.1431 56389.6820 3.5389 3.5321
ENERGY: 145000 1.3440 5.7085 3.6927 0.0000 -25261.9119 4061.0941 0.0000 0.0000 2074.5284 -19115.5441 182.7804 -21190.0726 -19109.6282 179.2698 -70.6200 15.5307 55949.3839 3.1642 3.0684
ENERGY: 155000 1.9019 7.8132 2.1945 0.0000 -25470.9899 4209.2192 0.0000 0.0000 2062.8166 -19187.0447 181.7485 -21249.8613 -19180.5529 179.1985 587.9870 605.2152 55420.7349 5.5483 5.3911
ENERGY: 165000 1.5235 5.5301 2.1706 0.0000 -25357.3493 4087.2802 0.0000 0.0000 2070.3058 -19190.5390 182.4083 -21260.8449 -19187.1089 179.2879 -42.9586 33.7883 55773.5934 2.0763 2.2258
ENERGY: 175000 2.3980 6.2969 3.6816 0.0000 -25342.1015 4133.8625 0.0000 0.0000 2035.6885 -19160.1740 179.3583 -21195.8625 -19155.9070 179.6402 282.6669 304.7794 55807.0382 4.3462 4.0936
TCL: Running 50000 steps at 210 kelvin.
TCL: Setting parameter langevinTemp to 210
TCL: Running for 50000 steps
ETITLE: TS BOND ANGLE DIHED IMPRP ELECT VDW BOUNDARY MISC KINETIC TOTAL TEMP POTENTIAL TOTAL3 TEMPAVG PRESSURE GPRESSURE VOLUME PRESSAVG GPRESSAVG
ENERGY: 175000 2.3980 6.2969 3.6816 0.0000 -25342.1015 4133.8625 0.0000 0.0000 2034.6868 -19161.1757 179.2701 -21195.8625 -19156.9286 179.2701 247.7157 304.0758 55807.0382 247.7157 304.0758
ENERGY: 185000 4.0283 6.1874 3.1300 0.0000 -24254.3184 3798.9570 0.0000 0.0000 2405.3692 -18036.6465 211.9298 -20442.0157 -18031.0952 209.4877 203.6386 283.0919 55705.1677 1.4659 1.4208
ENERGY: 195000 0.8299 6.7439 4.4327 0.0000 -24102.7893 3800.5660 0.0000 0.0000 2358.5655 -17931.6514 207.8060 -20290.2169 -17925.9786 209.0741 594.4868 675.4418 55453.0204 -0.2825 -0.2966
ENERGY: 205000 3.9505 8.3860 3.4814 0.0000 -24007.4100 3583.3313 0.0000 0.0000 2377.9174 -18030.3434 209.5111 -20408.2608 -18024.4544 211.7524 -560.6550 -450.3885 55642.8909 0.3790 0.5904
ENERGY: 215000 2.1279 5.9591 6.3027 0.0000 -23938.5110 3598.1749 0.0000 0.0000 2387.6263 -17938.3201 210.3665 -20325.9463 -17932.8384 210.3842 -264.8535 -192.6379 55632.6499 7.4578 7.6275
ENERGY: 225000 4.6847 7.8668 3.4076 0.0000 -24058.8419 3730.8705 0.0000 0.0000 2364.0611 -17947.9514 208.2902 -20312.0125 -17942.4442 210.3530 410.8032 450.5078 55257.3029 3.3009 3.3664
TCL: Running 50000 steps at 240 kelvin.
TCL: Setting parameter langevinTemp to 240
TCL: Running for 50000 steps
ETITLE: TS BOND ANGLE DIHED IMPRP ELECT VDW BOUNDARY MISC KINETIC TOTAL TEMP POTENTIAL TOTAL3 TEMPAVG PRESSURE GPRESSURE VOLUME PRESSAVG GPRESSAVG
ENERGY: 225000 4.6847 7.8668 3.4076 0.0000 -24058.8419 3730.8705 0.0000 0.0000 2362.8691 -17949.1434 208.1852 -20312.0125 -17945.8012 208.1852 370.3851 450.9853 55257.3029 370.3851 450.9853
ENERGY: 235000 3.3771 8.5589 5.1338 0.0000 -22849.1017 3329.4268 0.0000 0.0000 2691.9161 -16810.6891 237.1765 -19502.6051 -16806.3601 240.0373 17.8487 127.4311 55864.0197 4.3994 4.4675
ENERGY: 245000 1.5506 8.5226 3.2932 0.0000 -22983.9392 3471.0334 0.0000 0.0000 2754.9469 -16744.5925 242.7300 -19499.5394 -16739.6962 241.6083 519.4398 582.2242 56690.9583 1.4023 1.5129
ENERGY: 255000 1.1091 9.5957 3.3418 0.0000 -23004.2452 3450.3842 0.0000 0.0000 2712.2313 -16827.5831 238.9664 -19539.8144 -16821.0396 239.9937 481.4846 544.1547 56100.7960 3.9930 3.9275
ENERGY: 265000 5.3719 7.6642 5.9726 0.0000 -22867.5828 3366.6482 0.0000 0.0000 2745.1622 -16736.7638 241.8679 -19481.9260 -16730.3953 240.4016 250.3981 289.4444 55996.4438 2.7995 3.2907
ENERGY: 275000 1.9768 10.3295 5.7562 0.0000 -22726.0301 3255.5511 0.0000 0.0000 2741.4646 -16710.9519 241.5421 -19452.4165 -16704.8603 239.4882 -133.0618 -49.6682 55640.7825 0.7739 1.6298
TCL: Running 50000 steps at 270 kelvin.
TCL: Setting parameter langevinTemp to 270
TCL: Running for 50000 steps
ETITLE: TS BOND ANGLE DIHED IMPRP ELECT VDW BOUNDARY MISC KINETIC TOTAL TEMP POTENTIAL TOTAL3 TEMPAVG PRESSURE GPRESSURE VOLUME PRESSAVG GPRESSAVG
ENERGY: 275000 1.9768 10.3295 5.7562 0.0000 -22726.0301 3255.5511 0.0000 0.0000 2740.1231 -16712.2934 241.4239 -19452.4165 -16707.4943 241.4239 -133.0200 -49.6768 55640.7825 -133.0200 -49.6768
ENERGY: 285000 2.4591 6.1591 4.9122 0.0000 -21582.8485 2941.5564 0.0000 0.0000 3039.4225 -15588.3391 267.7943 -18627.7616 -15578.8215 272.7333 -376.3771 -312.1657 57633.2912 0.5710 0.7120
ENERGY: 295000 3.4901 10.0072 4.7083 0.0000 -21791.5807 3070.8726 0.0000 0.0000 3079.9548 -15622.5475 271.3655 -18702.5024 -15616.5555 271.9611 126.9798 216.2632 56923.3867 0.4323 0.1936
ENERGY: 305000 6.6476 9.6768 2.3626 0.0000 -21572.8180 2965.7952 0.0000 0.0000 3047.4472 -15540.8886 268.5013 -18588.3359 -15534.3850 269.9611 -208.0665 -98.5984 57574.7906 3.2248 3.3012
ENERGY: 315000 3.7527 7.2983 4.6224 0.0000 -21916.3821 3148.9534 0.0000 0.0000 3163.4644 -15588.2909 278.7232 -18751.7553 -15581.8796 270.7033 462.1111 569.3061 56987.7984 3.4306 3.3834
ENERGY: 325000 2.2688 6.5838 4.6554 0.0000 -21672.0229 3092.0655 0.0000 0.0000 3111.7874 -15454.6621 274.1701 -18566.4494 -15446.4551 270.6962 442.5019 546.0791 57518.2560 3.0611 3.0714
TCL: Running 1000000 steps at 300 kelvin.
TCL: Setting parameter langevinTemp to 300
TCL: Running for 1000000 steps
ETITLE: TS BOND ANGLE DIHED IMPRP ELECT VDW BOUNDARY MISC KINETIC TOTAL TEMP POTENTIAL TOTAL3 TEMPAVG PRESSURE GPRESSURE VOLUME PRESSAVG GPRESSAVG
ENERGY: 325000 2.2688 6.5838 4.6554 0.0000 -21672.0229 3092.0655 0.0000 0.0000 3110.2654 -15456.1840 274.0360 -18566.4494 -15452.4945 274.0360 455.6614 546.7934 57518.2560 455.6614 546.7934
ENERGY: 525000 4.3214 9.6188 6.8237 0.0000 -20735.6463 2795.3862 0.0000 0.0000 3401.3576 -14518.1386 299.6833 -17919.4962 -14511.1509 299.3738 -25.0822 88.8065 58408.5164 4.4999 4.1855
ENERGY: 725000 2.7539 6.0901 3.2055 0.0000 -20807.4669 2899.0442 0.0000 0.0000 3461.9701 -14434.4032 305.0237 -17896.3732 -14427.4593 302.1451 544.8652 627.2921 58610.0944 5.4849 5.3376
ENERGY: 925000 3.2039 8.0720 4.4398 0.0000 -20763.4537 2812.1979 0.0000 0.0000 3452.3703 -14483.1698 304.1778 -17935.5401 -14474.5417 297.9190 -57.0394 64.5738 58718.0676 6.2002 5.5960
ENERGY: 1125000 4.3693 12.0696 8.4295 0.0000 -20586.3387 2698.4132 0.0000 0.0000 3435.7986 -14427.2586 302.7178 -17863.0572 -14419.3861 300.3799 -309.9735 -211.3375 58399.4456 5.5488 5.6186
ENERGY: 1325000 6.7450 7.3993 6.7267 0.0000 -20764.9076 2903.9662 0.0000 0.0000 3463.2482 -14376.8222 305.1363 -17840.0704 -14372.0942 301.6413 459.3484 565.1704 58863.4944 3.4146 3.1836
TCL: Exiting due to exit command.
