Info: SIMULATION PARAMETERS:
Info: TIMESTEP               1
Info: NUMBER OF STEPS        0
Info: STEPS PER CYCLE        10
Info: PERIODIC CELL BASIS 1  30 0 0
Info: PERIODIC CELL BASIS 2  0 30 0
Info: PERIODIC CELL BASIS 3  0 0 30
Info: PERIODIC CELL CENTER   0 0 0
Info: WRAPPING ALL CLUSTERS AROUND PERIODIC BOUNDARIES ON OUTPUT.
Info: FIRST LDB TIMESTEP     50
Info: LAST LDB TIMESTEP     -1
Info: HOM BACKGROUND SCALING 1
Info: MIN ATOMS PER PATCH    40
Info: EMPTY PATCH LOAD       40 ATOMS
Info: INITIAL TEMPERATURE    298
Info: CENTER OF MASS MOVING INITIALLY? NO
Info: DIELECTRIC             1
Info: EXCLUDE                SCALED ONE-FOUR
Info: 1-4 ELECTROSTATICS SCALED BY 1
Info: MODIFIED 1-4 VDW PARAMETERS WILL BE USED
Info: DCD FILENAME           output.dcd
Info: DCD FREQUENCY          5000
Info: DCD FIRST STEP         5000
Info: DCD FILE WILL CONTAIN UNIT CELL DATA
Info: NO EXTENDED SYSTEM TRAJECTORY OUTPUT
Info: NO VELOCITY DCD OUTPUT
Info: NO FORCE DCD OUTPUT
Info: OUTPUT FILENAME        output
Info: BINARY OUTPUT FILES WILL BE USED
Info: NO RESTART FILE
Info: SWITCHING ACTIVE
Info: SWITCHING ON           10
Info: SWITCHING OFF          12
Info: PAIRLIST DISTANCE      14
Info: PAIRLIST SHRINK RATE   0.01
Info: PAIRLIST GROW RATE     0.01
Info: PAIRLIST TRIGGER       0.3
Info: PAIRLISTS PER CYCLE    2
Info: PAIRLISTS ENABLED
Info: MARGIN                 0.495
Info: HYDROGEN GROUP CUTOFF  2.5
Info: PATCH DIMENSION        16.995
Info: ENERGY OUTPUT STEPS    5000
Info: ENERGY EVALUATION STEPS    5000
Info: OUTPUT ENERGY PRECISION 4
Info: CROSSTERM ENERGY INCLUDED IN DIHEDRAL
Info: TIMING OUTPUT STEPS    5000
Info: LANGEVIN DYNAMICS ACTIVE
Info: LANGEVIN TEMPERATURE   298
Info: LANGEVIN USING BBK INTEGRATOR
Info: LANGEVIN DAMPING COEFFICIENT IS 1 INVERSE PS
Info: LANGEVIN DYNAMICS NOT APPLIED TO HYDROGENS
Info: LANGEVIN PISTON PRESSURE CONTROL ACTIVE
Info:        TARGET PRESSURE IS 1.01325 BAR
Info:     OSCILLATION PERIOD IS 100 FS
Info:             DECAY TIME IS 50 FS
Info:     PISTON TEMPERATURE IS 298 K
Info:       PRESSURE CONTROL IS GROUP-BASED
Info:    INITIAL STRAIN RATE IS 0 0 0
Info:       CELL FLUCTUATION IS ISOTROPIC
Info: MULTILEVEL SUMMATION METHOD (MSM) FOR ELECTROSTATICS ACTIVE
Info: MSM WITH C1 CUBIC INTERPOLATION AND C2 TAYLOR SPLITTING
Info: FULL ELECTROSTATIC EVALUATION FREQUENCY      1
Info: USING VERLET I (r-RESPA) MTS SCHEME.
Info: C1 SPLITTING OF LONG RANGE ELECTROSTATICS
Info: PLACING ATOMS IN PATCHES BY HYDROGEN GROUPS
Info: RIGID BONDS TO HYDROGEN : ALL
Info:         ERROR TOLERANCE : 1e-08
Info:          MAX ITERATIONS : 100
Info: RIGID WATER USING SETTLE ALGORITHM
Info: RANDOM NUMBER SEED     1740284940
Info: USE HYDROGEN BONDS?    NO
Info: COORDINATE PDB         ionized.pdb
Info: STRUCTURE FILE         ionized.psf
Info: PARAMETER file: CHARMM format!
Info: PARAMETERS             par_all27_prot_lipid.inp
Info: USING ARITHMETIC MEAN TO COMBINE L-J SIGMA PARAMETERS
Info: SUMMARY OF PARAMETERS:
Info: 180 BONDS
Info: 447 ANGLES
Info: 566 DIHEDRAL
Info: 46 IMPROPER
Info: 6 CROSSTERM
Info: 119 VDW
Info: 0 VDW_PAIRS
Info: 0 NBTHOLE_PAIRS
Info: STRUCTURE SUMMARY:
Info: 2476 ATOMS
Info: 1650 BONDS
Info: 825 ANGLES
Info: 0 DIHEDRALS
Info: 0 IMPROPERS
Info: 0 CROSSTERMS
Info: 0 EXCLUSIONS
Info: 2475 RIGID BONDS
Info: 4953 DEGREES OF FREEDOM
Info: 826 HYDROGEN GROUPS
Info: 3 ATOMS IN LARGEST HYDROGEN GROUP
Info: 826 MIGRATION GROUPS
Info: 3 ATOMS IN LARGEST MIGRATION GROUP
Info: TOTAL MASS = 14885.7 amu
Info: TOTAL CHARGE = 1 e
Info: MASS DENSITY = 0.915513 g/cm^3
Info: ATOM DENSITY = 0.0917037 atoms/A^3
Info: ADDED 2475 IMPLICIT EXCLUSIONS
Info: NONBONDED TABLE R-SQUARED SPACING: 0.0625
Info: NONBONDED TABLE SIZE: 769 POINTS
Info: REMOVING COM VELOCITY 0.147567 -0.0561517 -0.0724299
Info: MSM using C1 cubic interpolation
Info: MSM using C2 Taylor splitting function
Info: MSM block size decomposition along X is 8 grid points
Info: MSM block size decomposition along Y is 8 grid points
Info: MSM block size decomposition along Z is 8 grid points
Info: MSM grid spacing along X is 2.5 A
Info: MSM grid spacing along Y is 2.5 A
Info: MSM grid spacing along Z is 2.5 A
Info: MSM using 3 levels
Info:     level 0:  [0..11] x [0..11] x [0..11]
Info:     level 1:  [0..5] x [0..5] x [0..5]
Info:     level 2:  [0..2] x [0..2] x [0..2]
Info: MSM finished calculating stencils
Info: MSM finished creating map for grid levels
Info: MSM finished creating map for patches
Info: MSM has 9 interpolation / anterpolation objects (one per patch)
Info: MSM grid level 0 decomposed into 8 blocks ( 2 x 2 x 2 )
Info: MSM grid level 1 decomposed into 1 block ( 1 x 1 x 1 )
Info: MSM grid level 2 decomposed into 1 block ( 1 x 1 x 1 )
Info: MSM grid cutoff calculation decomposed into 783 work objects
TCL: Minimizing for 1000 steps
ETITLE: TS BOND ANGLE DIHED IMPRP ELECT VDW BOUNDARY MISC KINETIC TOTAL TEMP POTENTIAL TOTAL3 TEMPAVG PRESSURE GPRESSURE VOLUME PRESSAVG GPRESSAVG
ENERGY: 0 0.0000 0.0000 0.0000 0.0000 -7348.6495 6353.7252 0.0000 0.0000 0.0000 -994.9243 0.0000 -994.9243 -994.9243 0.0000 75204.0846 46356.0497 27000.0000 75204.0846 46356.0497
ENERGY: 200 0.0000 0.0000 0.0000 0.0000 -10435.2446 1044.6295 0.0000 0.0000 0.0000 -9390.6151 0.0000 -9390.6151 -9390.6151 0.0000 18134.0173 18080.1310 27000.0000 18134.0173 18080.1310
ENERGY: 400 0.0000 0.0000 0.0000 0.0000 -10929.3008 1251.0896 0.0000 0.0000 0.0000 -9678.2112 0.0000 -9678.2112 -9678.2112 0.0000 20430.2004 20354.2956 27000.0000 20430.2004 20354.2956
ENERGY: 600 0.0000 0.0000 0.0000 0.0000 -11087.7600 1294.1207 0.0000 0.0000 0.0000 -9793.6393 0.0000 -9793.6393 -9793.6393 0.0000 20936.9761 20858.0118 27000.0000 20936.9761 20858.0118
ENERGY: 800 0.0000 0.0000 0.0000 0.0000 -11188.3275 1321.1858 0.0000 0.0000 0.0000 -9867.1418 0.0000 -9867.1418 -9867.1418 0.0000 21231.0032 21172.4538 27000.0000 21231.0032 21172.4538
ENERGY: 1000 0.0000 0.0000 0.0000 0.0000 -11272.9567 1346.0472 0.0000 0.0000 0.0000 -9926.9096 0.0000 -9926.9096 -9926.9096 0.0000 21511.3924 21453.6503 27000.0000 21511.3924 21453.6503
TCL: Running for 1000000 steps
ETITLE: TS BOND ANGLE DIHED IMPRP ELECT VDW BOUNDARY MISC KINETIC TOTAL TEMP POTENTIAL TOTAL3 TEMPAVG PRESSURE GPRESSURE VOLUME PRESSAVG GPRESSAVG
ENERGY: 5000 0.0000 0.0000 0.0000 0.0000 -9610.1666 1037.4864 0.0000 0.0000 1235.1927 -7337.4874 250.9902 -8572.6802 -7337.8010 217.5117 193.5459 190.6031 24144.2908 -1.1497 -0.8409
ENERGY: 205000 0.0000 0.0000 0.0000 0.0000 -9030.8645 884.0320 0.0000 0.0000 1430.9662 -6715.8663 290.7712 -8146.8325 -6714.3149 299.5056 173.8592 179.6115 24166.8479 6.0362 5.8454
ENERGY: 405000 0.0000 0.0000 0.0000 0.0000 -8994.6027 891.1670 0.0000 0.0000 1482.4154 -6621.0203 301.2257 -8103.4357 -6620.3090 300.3253 48.6981 23.9986 24746.4960 -2.4462 -2.6502
ENERGY: 600000 0.0000 0.0000 0.0000 0.0000 -8934.3843 866.4688 0.0000 0.0000 1534.7079 -6533.2076 311.8515 -8067.9155 -6532.2947 300.6912 -34.1618 -57.8150 24892.2965 5.1426 5.1391
ENERGY: 800000 0.0000 0.0000 0.0000 0.0000 -9071.2232 866.8212 0.0000 0.0000 1536.8159 -6667.5861 312.2798 -8204.4020 -6667.2525 299.3342 -261.6320 -262.4868 24345.5922 8.6860 8.6522
ENERGY: 1000000 0.0000 0.0000 0.0000 0.0000 -9091.1157 872.3862 0.0000 0.0000 1524.2619 -6694.4676 309.7288 -8218.7295 -6694.8533 293.5020 -277.1680 -273.4555 24602.8477 3.1780 3.0432
