Info: SIMULATION PARAMETERS:
Info: TIMESTEP               2
Info: NUMBER OF STEPS        0
Info: STEPS PER CYCLE        10
Info: PERIODIC CELL BASIS 1  39.806 0 0
Info: PERIODIC CELL BASIS 2  0 39.303 0
Info: PERIODIC CELL BASIS 3  0 0 41.374
Info: PERIODIC CELL CENTER   0 0 0
Info: WRAPPING WATERS AROUND PERIODIC BOUNDARIES ON OUTPUT.
Info: WRAPPING ALL CLUSTERS AROUND PERIODIC BOUNDARIES ON OUTPUT.
Info: FIRST LDB TIMESTEP     50
Info: LAST LDB TIMESTEP     -1
Info: HOM BACKGROUND SCALING 1
Info: PME BACKGROUND SCALING 1
Info: MIN ATOMS PER PATCH    40
Info: EMPTY PATCH LOAD       40 ATOMS
Info: INITIAL TEMPERATURE    300
Info: CENTER OF MASS MOVING INITIALLY? NO
Info: DIELECTRIC             1
Info: EXCLUDE                SCALED ONE-FOUR
Info: 1-4 ELECTROSTATICS SCALED BY 0.833333
Info: MODIFIED 1-4 VDW PARAMETERS WILL BE USED
Info: DCD FILENAME           mobley_4291494_min.dcd
Info: DCD FREQUENCY          5000
Info: DCD FIRST STEP         5000
Info: DCD FILE WILL CONTAIN UNIT CELL DATA
Info: XST FILENAME           mobley_4291494_min.xst
Info: XST FREQUENCY          5000
Info: NO VELOCITY DCD OUTPUT
Info: NO FORCE DCD OUTPUT
Info: OUTPUT FILENAME        mobley_4291494_min
Info: BINARY OUTPUT FILES WILL BE USED
Info: RESTART FILENAME       mobley_4291494_min.restart
Info: RESTART FREQUENCY      5000
Info: BINARY RESTART FILES WILL BE USED
Info: CUTOFF                 9
Info: PAIRLIST DISTANCE      11
Info: PAIRLIST SHRINK RATE   0.01
Info: PAIRLIST GROW RATE     0.01
Info: PAIRLIST TRIGGER       0.3
Info: PAIRLISTS PER CYCLE    2
Info: PAIRLISTS ENABLED
Info: MARGIN                 8
Info: HYDROGEN GROUP CUTOFF  2.5
Info: PATCH DIMENSION        21.5
Info: ENERGY OUTPUT STEPS    5000
Info: ENERGY EVALUATION STEPS    5000
Info: OUTPUT ENERGY PRECISION 4
Info: CROSSTERM ENERGY INCLUDED IN DIHEDRAL
Info: TIMING OUTPUT STEPS    50000
Info: PRESSURE OUTPUT STEPS  5000
Info: LANGEVIN DYNAMICS ACTIVE
Info: LANGEVIN TEMPERATURE   300
Info: LANGEVIN USING BBK INTEGRATOR
Info: LANGEVIN DAMPING COEFFICIENT IS 1 INVERSE PS
Info: LANGEVIN DYNAMICS APPLIED TO HYDROGENS
Info: LANGEVIN PISTON PRESSURE CONTROL ACTIVE
Info:        TARGET PRESSURE IS 1.01325 BAR
Info:     OSCILLATION PERIOD IS 50 FS
Info:             DECAY TIME IS 25 FS
Info:     PISTON TEMPERATURE IS 300 K
Info:       PRESSURE CONTROL IS GROUP-BASED
Info:    INITIAL STRAIN RATE IS 0 0 0
Info:       CELL FLUCTUATION IS ISOTROPIC
Info: PARTICLE MESH EWALD (PME) ACTIVE
Info: PME TOLERANCE               1e-06
Info: PME EWALD COEFFICIENT       0.348832
Info: PME INTERPOLATION ORDER     4
Info: PME GRID DIMENSIONS         40 40 44
Info: PME MAXIMUM GRID SPACING    1
Info: FULL ELECTROSTATIC EVALUATION FREQUENCY      2
Info: USING VERLET I (r-RESPA) MTS SCHEME.
Info: C1 SPLITTING OF LONG RANGE ELECTROSTATICS
Info: PLACING ATOMS IN PATCHES BY HYDROGEN GROUPS
Info: RIGID BONDS TO HYDROGEN : ALL
Info:         ERROR TOLERANCE : 1e-08
Info:          MAX ITERATIONS : 100
Info: RIGID WATER USING SETTLE ALGORITHM
Info: RANDOM NUMBER SEED     1741336168
Info: USE HYDROGEN BONDS?    NO
Info: Using AMBER format force field!
Info: AMBER PARM FILE        mobley_4291494.prmtop
Info: COORDINATE PDB         mobley_4291494.pdb
Info: Exclusions will be read from PARM file!
Info: SCNB (VDW SCALING)     2
Info: USING ARITHMETIC MEAN TO COMBINE L-J SIGMA PARAMETERS
Info: SUMMARY OF PARAMETERS:
Info: 7 BONDS
Info: 8 ANGLES
Info:   8 HARMONIC
Info:   0 COSINE-BASED
Info: 3 DIHEDRAL
Info: 0 IMPROPER
Info: 0 CROSSTERM
Info: 0 VDW
Info: 28 VDW_PAIRS
Info: 0 NBTHOLE_PAIRS
Info: STRUCTURE SUMMARY:
Info: 4763 ATOMS
Info: 4763 BONDS
Info: 16 ANGLES
Info: 23 DIHEDRALS
Info: 0 IMPROPERS
Info: 0 CROSSTERMS
Info: 4796 EXCLUSIONS
Info: 4756 RIGID BONDS
Info: 9533 DEGREES OF FREEDOM
Info: 1591 HYDROGEN GROUPS
Info: 3 ATOMS IN LARGEST HYDROGEN GROUP
Info: 1591 MIGRATION GROUPS
Info: 3 ATOMS IN LARGEST MIGRATION GROUP
Info: TOTAL MASS = 28650.9 amu
Info: TOTAL CHARGE = 9.99942e-05 e
Info: MASS DENSITY = 0.735014 g/cm^3
Info: ATOM DENSITY = 0.0735832 atoms/A^3
Info: ADDED 0 IMPLICIT EXCLUSIONS
Info: NONBONDED TABLE R-SQUARED SPACING: 0.0625
Info: NONBONDED TABLE SIZE: 705 POINTS
Info: REMOVING COM VELOCITY -0.141539 0.121296 0.0490815
TCL: Minimizing for 2000 steps
ETITLE: TS BOND ANGLE DIHED IMPRP ELECT VDW BOUNDARY MISC KINETIC TOTAL TEMP POTENTIAL TOTAL3 TEMPAVG PRESSURE GPRESSURE VOLUME PRESSAVG GPRESSAVG
ENERGY: 0 0.6287 0.4474 0.0003 0.0000 -15014.0026 1723.9790 0.0000 0.0000 0.0000 -13288.9472 0.0000 -13288.9472 -13288.9472 0.0000 11530.7770 -16063.6474 64729.4251 11530.7770 -16063.6474
ENERGY: 400 7.1979 3.5364 0.1371 0.0000 -20030.4738 2891.2624 0.0000 0.0000 0.0000 -17128.3400 0.0000 -17128.3400 -17128.3400 0.0000 15983.7454 16108.1541 64729.4251 15983.7454 16108.1541
ENERGY: 800 1.7408 1.0675 0.0391 0.0000 -21112.0564 3460.2550 0.0000 0.0000 0.0000 -17648.9538 0.0000 -17648.9538 -17648.9538 0.0000 18741.5306 18867.1438 64729.4251 18741.5306 18867.1438
ENERGY: 1200 0.5375 0.5733 0.0653 0.0000 -21491.4657 3606.7433 0.0000 0.0000 0.0000 -17883.5464 0.0000 -17883.5464 -17883.5464 0.0000 19478.4940 19592.8622 64729.4251 19478.4940 19592.8622
ENERGY: 1600 0.9016 0.7924 0.1522 0.0000 -21777.0658 3739.9196 0.0000 0.0000 0.0000 -18035.3000 0.0000 -18035.3000 -18035.3000 0.0000 20194.2742 20299.1717 64729.4251 20194.2742 20299.1717
ENERGY: 2000 0.1848 0.2922 0.0327 0.0000 -21869.5213 3757.2894 0.0000 0.0000 0.0000 -18111.7223 0.0000 -18111.7223 -18111.7223 0.0000 20312.5128 20417.1698 64729.4251 20312.5128 20417.1698
TCL: Exiting due to exit command.
Info: NAMD 3.0.1 for Linux-x86_64-multicore
Info: Please visit http://www.ks.uiuc.edu/Research/namd/
Info: for updates, documentation, and support information.
Info: Please cite Phillips et al., J. Chem. Phys. 153:044130 (2020) doi:10.1063/5.0014475
Info: in all publications reporting results obtained with NAMD.
Info: Based on Charm++/Converse 80000 for multicore-linux-x86_64-gcc
Info: Built Mon Oct 14 11:11:06 CDT 2024 by dhardy on athine.ks.uiuc.edu
Info: 1 NAMD  3.0.1  Linux-x86_64-multicore  16    k112  z5358697
Info: Running on 16 processors, 1 nodes, 1 physical nodes.
Info: CPU topology information available.
Info: Charm++/Converse parallel runtime startup completed at 0.00527336 s
Info: 1043.48 MB of memory in use based on /proc/self/stat
Info: Configuration file is mobley_4291494_equil.namd
Info: Working in the current directory /srv/scratch/z5358697/prod_prep_5/4291494
TCL: Running 25000 steps at 30 kelvin.
TCL: Suspending until startup complete.
Info: SIMULATION PARAMETERS:
Info: TIMESTEP               2
Info: NUMBER OF STEPS        0
Info: STEPS PER CYCLE        10
Info: PERIODIC CELL BASIS 1  39.806 0 0
Info: PERIODIC CELL BASIS 2  0 39.303 0
Info: PERIODIC CELL BASIS 3  0 0 41.374
Info: PERIODIC CELL CENTER   0 0 0
Info: WRAPPING WATERS AROUND PERIODIC BOUNDARIES ON OUTPUT.
Info: WRAPPING ALL CLUSTERS AROUND PERIODIC BOUNDARIES ON OUTPUT.
Info: FIRST LDB TIMESTEP     50
Info: LAST LDB TIMESTEP     -1
Info: HOM BACKGROUND SCALING 1
Info: PME BACKGROUND SCALING 1
Info: MIN ATOMS PER PATCH    40
Info: EMPTY PATCH LOAD       40 ATOMS
Info: INITIAL TEMPERATURE    300
Info: CENTER OF MASS MOVING INITIALLY? NO
Info: DIELECTRIC             1
Info: EXCLUDE                SCALED ONE-FOUR
Info: 1-4 ELECTROSTATICS SCALED BY 0.833333
Info: MODIFIED 1-4 VDW PARAMETERS WILL BE USED
Info: DCD FILENAME           mobley_4291494_equil.dcd
Info: DCD FREQUENCY          5000
Info: DCD FIRST STEP         5000
Info: DCD FILE WILL CONTAIN UNIT CELL DATA
Info: XST FILENAME           mobley_4291494_equil.xst
Info: XST FREQUENCY          5000
Info: NO VELOCITY DCD OUTPUT
Info: NO FORCE DCD OUTPUT
Info: OUTPUT FILENAME        mobley_4291494_equil
Info: BINARY OUTPUT FILES WILL BE USED
Info: RESTART FILENAME       mobley_4291494_equil.restart
Info: RESTART FREQUENCY      5000
Info: BINARY RESTART FILES WILL BE USED
Info: CUTOFF                 9
Info: PAIRLIST DISTANCE      11
Info: PAIRLIST SHRINK RATE   0.01
Info: PAIRLIST GROW RATE     0.01
Info: PAIRLIST TRIGGER       0.3
Info: PAIRLISTS PER CYCLE    2
Info: PAIRLISTS ENABLED
Info: MARGIN                 8
Info: HYDROGEN GROUP CUTOFF  2.5
Info: PATCH DIMENSION        21.5
Info: ENERGY OUTPUT STEPS    5000
Info: ENERGY EVALUATION STEPS    5000
Info: OUTPUT ENERGY PRECISION 4
Info: CROSSTERM ENERGY INCLUDED IN DIHEDRAL
Info: TIMING OUTPUT STEPS    50000
Info: PRESSURE OUTPUT STEPS  5000
Info: LANGEVIN DYNAMICS ACTIVE
Info: LANGEVIN TEMPERATURE   30
Info: LANGEVIN USING BBK INTEGRATOR
Info: LANGEVIN DAMPING COEFFICIENT IS 1 INVERSE PS
Info: LANGEVIN DYNAMICS APPLIED TO HYDROGENS
Info: LANGEVIN PISTON PRESSURE CONTROL ACTIVE
Info:        TARGET PRESSURE IS 1.01325 BAR
Info:     OSCILLATION PERIOD IS 50 FS
Info:             DECAY TIME IS 25 FS
Info:     PISTON TEMPERATURE IS 300 K
Info:       PRESSURE CONTROL IS GROUP-BASED
Info:    INITIAL STRAIN RATE IS 0 0 0
Info:       CELL FLUCTUATION IS ISOTROPIC
Info: PARTICLE MESH EWALD (PME) ACTIVE
Info: PME TOLERANCE               1e-06
Info: PME EWALD COEFFICIENT       0.348832
Info: PME INTERPOLATION ORDER     4
Info: PME GRID DIMENSIONS         40 40 44
Info: PME MAXIMUM GRID SPACING    1
Info: FULL ELECTROSTATIC EVALUATION FREQUENCY      2
Info: USING VERLET I (r-RESPA) MTS SCHEME.
Info: C1 SPLITTING OF LONG RANGE ELECTROSTATICS
Info: PLACING ATOMS IN PATCHES BY HYDROGEN GROUPS
Info: RIGID BONDS TO HYDROGEN : ALL
Info:         ERROR TOLERANCE : 1e-08
Info:          MAX ITERATIONS : 100
Info: RIGID WATER USING SETTLE ALGORITHM
Info: RANDOM NUMBER SEED     1741336180
Info: USE HYDROGEN BONDS?    NO
Info: Using AMBER format force field!
Info: AMBER PARM FILE        mobley_4291494.prmtop
Info: COORDINATE PDB         mobley_4291494.pdb
Info: Exclusions will be read from PARM file!
Info: SCNB (VDW SCALING)     2
Info: USING ARITHMETIC MEAN TO COMBINE L-J SIGMA PARAMETERS
Info: BINARY COORDINATES     mobley_4291494_min.coor
Info: SUMMARY OF PARAMETERS:
Info: 7 BONDS
Info: 8 ANGLES
Info:   8 HARMONIC
Info:   0 COSINE-BASED
Info: 3 DIHEDRAL
Info: 0 IMPROPER
Info: 0 CROSSTERM
Info: 0 VDW
Info: 28 VDW_PAIRS
Info: 0 NBTHOLE_PAIRS
Info: STRUCTURE SUMMARY:
Info: 4763 ATOMS
Info: 4763 BONDS
Info: 16 ANGLES
Info: 23 DIHEDRALS
Info: 0 IMPROPERS
Info: 0 CROSSTERMS
Info: 4796 EXCLUSIONS
Info: 4756 RIGID BONDS
Info: 9533 DEGREES OF FREEDOM
Info: 1591 HYDROGEN GROUPS
Info: 3 ATOMS IN LARGEST HYDROGEN GROUP
Info: 1591 MIGRATION GROUPS
Info: 3 ATOMS IN LARGEST MIGRATION GROUP
Info: TOTAL MASS = 28650.9 amu
Info: TOTAL CHARGE = 9.99942e-05 e
Info: MASS DENSITY = 0.735014 g/cm^3
Info: ATOM DENSITY = 0.0735832 atoms/A^3
Info: ADDED 0 IMPLICIT EXCLUSIONS
Info: NONBONDED TABLE R-SQUARED SPACING: 0.0625
Info: NONBONDED TABLE SIZE: 705 POINTS
Info: REMOVING COM VELOCITY -0.159758 0.144652 0.047128
TCL: Running for 25000 steps
ETITLE: TS BOND ANGLE DIHED IMPRP ELECT VDW BOUNDARY MISC KINETIC TOTAL TEMP POTENTIAL TOTAL3 TEMPAVG PRESSURE GPRESSURE VOLUME PRESSAVG GPRESSAVG
ENERGY: 0 0.1848 0.2922 0.0327 0.0000 -21869.5213 3757.2894 0.0000 0.0000 2775.8774 -15335.8448 293.0631 -18111.7222 -15335.3075 293.0631 104.7723 140.4761 64729.4251 104.7723 140.4761
ENERGY: 5000 0.5681 0.6841 0.5076 0.0000 -22998.2813 4070.6298 0.0000 0.0000 277.6485 -18648.2433 29.3127 -18925.8918 -18647.7197 47.0521 559.0551 614.9177 46307.0265 7.4715 7.6554
ENERGY: 10000 0.3444 0.3726 0.1731 0.0000 -22936.5554 3960.1526 0.0000 0.0000 287.6286 -18687.8841 30.3664 -18975.5128 -18687.1065 30.0107 -113.9104 -65.8128 46359.7065 1.6404 1.4059
ENERGY: 15000 0.6147 0.5937 0.1612 0.0000 -23041.2911 4045.5126 0.0000 0.0000 285.8533 -18708.5555 30.1789 -18994.4088 -18707.8315 30.1647 255.1898 328.0854 46245.8645 2.6827 2.5898
ENERGY: 20000 0.5004 0.3956 0.1548 0.0000 -22943.7520 3928.8516 0.0000 0.0000 276.8150 -18737.0345 29.2247 -19013.8495 -18736.0520 30.1695 -378.3457 -327.9901 46379.8558 1.6628 1.7113
ENERGY: 25000 0.5813 0.3809 0.1666 0.0000 -22994.7142 3968.7696 0.0000 0.0000 282.2300 -18742.5859 29.7964 -19024.8159 -18741.9702 30.0398 -231.2247 -169.0432 46298.6877 9.0219 9.1941
TCL: Running 25000 steps at 60 kelvin.
TCL: Setting parameter langevinTemp to 60
TCL: Running for 25000 steps
ETITLE: TS BOND ANGLE DIHED IMPRP ELECT VDW BOUNDARY MISC KINETIC TOTAL TEMP POTENTIAL TOTAL3 TEMPAVG PRESSURE GPRESSURE VOLUME PRESSAVG GPRESSAVG
ENERGY: 25000 0.5813 0.3809 0.1666 0.0000 -22994.7142 3968.7696 0.0000 0.0000 282.0918 -18742.7240 29.7818 -19024.8159 -18742.1367 29.7818 -237.4500 -169.0540 46298.6877 -237.4500 -169.0540
ENERGY: 30000 0.9510 0.8688 0.9413 0.0000 -22676.2517 3918.4330 0.0000 0.0000 575.3611 -18179.6965 60.7437 -18755.0576 -18178.8437 57.4761 101.6572 150.3083 46680.1561 5.5361 5.7368
ENERGY: 35000 0.8722 0.5267 0.5592 0.0000 -22780.7523 4012.4670 0.0000 0.0000 577.6503 -18188.6769 60.9854 -18766.3272 -18188.1156 60.0918 561.4752 616.4174 46587.5595 0.7648 0.9095
ENERGY: 40000 0.9883 0.4265 0.4623 0.0000 -22648.1212 3851.2977 0.0000 0.0000 580.2657 -18214.6807 61.2615 -18794.9464 -18213.3634 60.4331 -358.7645 -303.0760 46756.7598 6.3389 5.7371
ENERGY: 45000 0.3690 0.5105 0.7828 0.0000 -22911.0102 4049.8126 0.0000 0.0000 583.3412 -18276.1941 61.5862 -18859.5353 -18274.9702 59.7279 550.6590 631.1504 46444.1417 2.7426 3.0245
ENERGY: 50000 0.8791 0.3374 0.8719 0.0000 -22659.8037 3790.8415 0.0000 0.0000 564.6526 -18302.2210 59.6132 -18866.8737 -18300.5148 60.4867 -892.6075 -852.4807 46941.5366 5.8906 5.6369
TCL: Running 25000 steps at 90 kelvin.
TCL: Setting parameter langevinTemp to 90
TCL: Running for 25000 steps
ETITLE: TS BOND ANGLE DIHED IMPRP ELECT VDW BOUNDARY MISC KINETIC TOTAL TEMP POTENTIAL TOTAL3 TEMPAVG PRESSURE GPRESSURE VOLUME PRESSAVG GPRESSAVG
ENERGY: 50000 0.8791 0.3374 0.8719 0.0000 -22659.8037 3790.8415 0.0000 0.0000 564.3583 -18302.5153 59.5821 -18866.8737 -18301.3712 59.5821 -903.5289 -852.4491 46941.5366 -903.5289 -852.4491
ENERGY: 55000 0.1931 0.6043 0.6426 0.0000 -22586.6998 3988.0264 0.0000 0.0000 859.2141 -17738.0192 90.7115 -18597.2333 -17736.0826 86.6058 840.2770 891.0820 46589.4410 2.7885 2.9891
ENERGY: 60000 0.4962 0.8224 0.6214 0.0000 -22417.1999 3771.4381 0.0000 0.0000 847.2167 -17796.6052 89.4448 -18643.8219 -17794.3389 90.0984 -304.8240 -237.0153 46619.8703 0.6097 0.8682
ENERGY: 65000 1.0986 1.4516 0.6340 0.0000 -22458.1804 3795.4246 0.0000 0.0000 833.3840 -17826.1878 87.9845 -18659.5717 -17824.2845 90.3592 -313.6865 -236.5203 46664.1621 0.1027 0.0881
ENERGY: 70000 0.2744 0.9142 0.4277 0.0000 -22445.8932 3766.4095 0.0000 0.0000 846.6066 -17831.2607 89.3804 -18677.8673 -17828.3714 89.6169 -438.3929 -381.7983 46701.5040 2.9960 2.8701
ENERGY: 75000 0.2732 0.7264 0.2406 0.0000 -22651.3579 3990.7296 0.0000 0.0000 845.0953 -17814.2929 89.2209 -18659.3882 -17812.5164 90.3939 779.0815 812.7373 46638.4789 4.7117 4.7611
TCL: Running 25000 steps at 120 kelvin.
TCL: Setting parameter langevinTemp to 120
TCL: Running for 25000 steps
ETITLE: TS BOND ANGLE DIHED IMPRP ELECT VDW BOUNDARY MISC KINETIC TOTAL TEMP POTENTIAL TOTAL3 TEMPAVG PRESSURE GPRESSURE VOLUME PRESSAVG GPRESSAVG
ENERGY: 75000 0.2732 0.7264 0.2406 0.0000 -22651.3579 3990.7296 0.0000 0.0000 844.6676 -17814.7206 89.1757 -18659.3882 -17813.2272 89.1757 773.4476 812.8130 46638.4789 773.4476 812.8130
ENERGY: 80000 0.3513 1.5551 1.2812 0.0000 -22028.9538 3656.6050 0.0000 0.0000 1139.4726 -17229.6886 120.2997 -18369.1612 -17227.0954 116.6053 -299.1502 -240.1057 46962.1848 4.3801 4.3604
ENERGY: 85000 1.3765 0.6319 1.1032 0.0000 -22026.7695 3658.7572 0.0000 0.0000 1138.9227 -17225.9782 120.2417 -18364.9008 -17223.1955 119.6752 -281.7137 -207.2372 46872.7123 -1.0021 -0.7484
ENERGY: 90000 2.1562 1.2311 0.8030 0.0000 -22046.5165 3645.2291 0.0000 0.0000 1141.6282 -17255.4688 120.5273 -18397.0970 -17252.5663 120.5483 -417.6006 -409.0785 46977.6604 2.1799 2.3693
ENERGY: 95000 0.6143 0.3594 1.0305 0.0000 -22252.6944 3829.2895 0.0000 0.0000 1158.4893 -17262.9114 122.3074 -18421.4007 -17258.8664 120.5573 500.0217 562.2131 46473.5766 4.4654 3.6707
ENERGY: 100000 1.6526 0.5682 0.9235 0.0000 -22137.9380 3712.0382 0.0000 0.0000 1110.1002 -17312.6553 117.1988 -18422.7555 -17310.3042 119.9560 -240.5571 -183.7874 46875.7432 3.9277 3.6464
TCL: Running 25000 steps at 150 kelvin.
TCL: Setting parameter langevinTemp to 150
TCL: Running for 25000 steps
ETITLE: TS BOND ANGLE DIHED IMPRP ELECT VDW BOUNDARY MISC KINETIC TOTAL TEMP POTENTIAL TOTAL3 TEMPAVG PRESSURE GPRESSURE VOLUME PRESSAVG GPRESSAVG
ENERGY: 100000 1.6526 0.5682 0.9235 0.0000 -22137.9380 3712.0382 0.0000 0.0000 1109.5311 -17313.2244 117.1387 -18422.7555 -17311.2616 117.1387 -238.1625 -184.5567 46875.7432 -238.1625 -184.5567
ENERGY: 105000 0.3365 2.6152 1.2185 0.0000 -21541.5828 3491.4799 0.0000 0.0000 1453.7559 -16592.1768 153.4802 -18045.9327 -16586.6748 146.8248 -372.1298 -329.9114 47093.5054 0.7634 0.5233
ENERGY: 110000 0.8782 1.6577 0.4182 0.0000 -21759.7061 3640.5710 0.0000 0.0000 1414.9242 -16701.2568 149.3805 -18116.1811 -16699.5739 150.5609 238.5539 313.1603 46562.7947 4.2346 3.5671
ENERGY: 115000 0.7593 0.5189 0.8460 0.0000 -21676.8225 3536.2606 0.0000 0.0000 1397.8829 -16740.5547 147.5814 -18138.4375 -16739.0519 150.1497 -456.0216 -418.3571 47090.0775 0.7252 0.6837
ENERGY: 120000 1.0971 1.4511 1.2269 0.0000 -21864.0153 3680.4359 0.0000 0.0000 1438.1349 -16741.6693 151.8310 -18179.8043 -16737.3174 149.9329 263.2974 370.4458 46714.0771 6.4913 6.4467
ENERGY: 125000 1.2014 0.8570 1.7589 0.0000 -21837.3347 3684.2340 0.0000 0.0000 1458.6451 -16690.6382 153.9964 -18149.2834 -16687.6751 151.3099 408.3181 443.4325 46804.6841 -0.9531 -1.0962
TCL: Running 50000 steps at 180 kelvin.
TCL: Setting parameter langevinTemp to 180
TCL: Running for 50000 steps
ETITLE: TS BOND ANGLE DIHED IMPRP ELECT VDW BOUNDARY MISC KINETIC TOTAL TEMP POTENTIAL TOTAL3 TEMPAVG PRESSURE GPRESSURE VOLUME PRESSAVG GPRESSAVG
ENERGY: 125000 1.2014 0.8570 1.7589 0.0000 -21837.3347 3684.2340 0.0000 0.0000 1457.9436 -16691.3398 153.9223 -18149.2834 -16688.3215 153.9223 383.0394 442.7617 46804.6841 383.0394 442.7617
ENERGY: 135000 0.9656 1.6823 0.5980 0.0000 -21096.8586 3368.4590 0.0000 0.0000 1727.0347 -15998.1190 182.3316 -17725.1537 -15995.2600 180.1229 -157.1164 -77.5523 46556.3895 -0.6002 -0.8266
ENERGY: 145000 0.5164 0.6334 0.7976 0.0000 -21101.7924 3391.8845 0.0000 0.0000 1680.7470 -16027.2136 177.4447 -17707.9606 -16024.1455 180.3686 11.7273 71.9506 46558.7778 -0.0282 0.4733
ENERGY: 155000 1.4001 1.2204 2.5454 0.0000 -21205.5153 3443.5012 0.0000 0.0000 1719.4922 -16037.3560 181.5353 -17756.8482 -16033.8579 180.6432 7.1325 76.0988 46865.5521 1.5675 1.6305
ENERGY: 165000 1.8702 1.3563 0.5499 0.0000 -21282.6863 3471.6594 0.0000 0.0000 1677.4770 -16129.7734 177.0995 -17807.2505 -16128.7837 179.4604 57.2217 138.9342 46575.1825 5.4123 5.0668
ENERGY: 175000 0.7970 1.0269 1.7905 0.0000 -21385.3425 3486.8936 0.0000 0.0000 1663.3234 -16231.5112 175.6052 -17894.8345 -16227.9597 180.0521 88.9038 123.4255 46627.8028 8.7242 9.4618
TCL: Running 50000 steps at 210 kelvin.
TCL: Setting parameter langevinTemp to 210
TCL: Running for 50000 steps
ETITLE: TS BOND ANGLE DIHED IMPRP ELECT VDW BOUNDARY MISC KINETIC TOTAL TEMP POTENTIAL TOTAL3 TEMPAVG PRESSURE GPRESSURE VOLUME PRESSAVG GPRESSAVG
ENERGY: 175000 0.7970 1.0269 1.7905 0.0000 -21385.3425 3486.8936 0.0000 0.0000 1662.4538 -16232.3807 175.5134 -17894.8345 -16229.0491 175.5134 45.3668 122.1824 46627.8028 45.3668 122.1824
ENERGY: 185000 1.4583 2.0408 1.0395 0.0000 -20274.9604 3151.9299 0.0000 0.0000 2024.4394 -15094.0525 213.7300 -17118.4919 -15089.3430 209.0592 234.2857 307.3076 46576.3518 2.5984 2.8891
ENERGY: 195000 1.4843 4.6905 0.9596 0.0000 -20286.0164 3187.9811 0.0000 0.0000 1939.8826 -15151.0185 204.8030 -17090.9011 -15148.8288 209.4675 414.4011 508.8420 46346.2670 1.8510 1.3754
ENERGY: 205000 1.6480 2.1210 0.7140 0.0000 -20138.3057 3038.4475 0.0000 0.0000 2000.7211 -15094.6541 211.2260 -17095.3752 -15088.9548 209.9312 -315.5296 -277.9461 46745.1607 -1.2199 -1.2780
ENERGY: 215000 2.4953 2.2231 2.8647 0.0000 -20018.2365 2908.7298 0.0000 0.0000 1980.2270 -15121.6966 209.0623 -17101.9236 -15118.4493 209.6067 -980.7051 -920.0112 46494.0235 3.3580 3.2058
ENERGY: 225000 1.7195 2.8014 2.4307 0.0000 -20108.6967 3082.6284 0.0000 0.0000 1982.0612 -15037.0556 209.2560 -17019.1167 -15034.8214 210.4358 211.6730 238.3317 46008.3493 -1.5280 -0.6360
TCL: Running 50000 steps at 240 kelvin.
TCL: Setting parameter langevinTemp to 240
TCL: Running for 50000 steps
ETITLE: TS BOND ANGLE DIHED IMPRP ELECT VDW BOUNDARY MISC KINETIC TOTAL TEMP POTENTIAL TOTAL3 TEMPAVG PRESSURE GPRESSURE VOLUME PRESSAVG GPRESSAVG
ENERGY: 225000 1.7195 2.8014 2.4307 0.0000 -20108.6967 3082.6284 0.0000 0.0000 1981.0514 -15038.0653 209.1494 -17019.1167 -15034.7655 209.1494 164.8772 237.3837 46008.3493 164.8772 237.3837
ENERGY: 235000 0.9865 1.6941 1.3570 0.0000 -19116.5064 2783.6928 0.0000 0.0000 2284.6560 -14044.1199 241.2024 -16328.7758 -14038.6345 240.2547 194.6790 221.9156 46332.9962 -0.1669 0.3063
ENERGY: 245000 1.0681 6.0980 1.9718 0.0000 -19026.6648 2782.2154 0.0000 0.0000 2239.5035 -13995.8079 236.4354 -16235.3114 -13992.4995 239.1866 170.9413 252.8334 46833.5847 3.7159 3.7612
ENERGY: 255000 0.2358 0.7703 1.1816 0.0000 -19156.0573 2818.0932 0.0000 0.0000 2309.5431 -14026.2335 243.8298 -16335.7765 -14020.8421 241.0277 119.3277 148.9880 47215.2512 2.0270 1.5763
ENERGY: 265000 3.2957 3.2263 0.6138 0.0000 -18946.0697 2720.6534 0.0000 0.0000 2213.6321 -14004.6484 233.7040 -16218.2804 -14001.2259 240.8922 -229.9485 -138.8760 47097.2811 1.6271 1.8044
ENERGY: 275000 1.7797 2.1325 1.7045 0.0000 -19045.7459 2766.6383 0.0000 0.0000 2257.3922 -14016.0987 238.3240 -16273.4909 -14011.4051 241.7061 -184.2935 -73.9045 47173.6995 4.8837 4.6519
TCL: Running 50000 steps at 270 kelvin.
TCL: Setting parameter langevinTemp to 270
TCL: Running for 50000 steps
ETITLE: TS BOND ANGLE DIHED IMPRP ELECT VDW BOUNDARY MISC KINETIC TOTAL TEMP POTENTIAL TOTAL3 TEMPAVG PRESSURE GPRESSURE VOLUME PRESSAVG GPRESSAVG
ENERGY: 275000 1.7797 2.1325 1.7045 0.0000 -19045.7459 2766.6383 0.0000 0.0000 2256.2860 -14017.2049 238.2072 -16273.4909 -14013.9582 238.2072 -162.2153 -72.5346 47173.6995 -162.2153 -72.5346
ENERGY: 285000 2.6846 2.6389 2.0252 0.0000 -18091.4010 2474.5217 0.0000 0.0000 2534.9361 -13074.5945 267.6257 -15609.5305 -13072.3794 269.8500 -311.1558 -188.9840 48034.8517 2.2504 2.2678
ENERGY: 295000 0.9383 2.2035 0.3859 0.0000 -18085.5005 2470.4836 0.0000 0.0000 2527.8058 -13083.6834 266.8729 -15611.4892 -13079.1950 268.4209 -368.3184 -270.1876 48087.3157 5.1678 5.1354
ENERGY: 305000 2.0468 2.1162 1.0020 0.0000 -18251.5911 2528.4608 0.0000 0.0000 2499.4631 -13218.5021 263.8806 -15717.9652 -13213.6084 271.3757 -156.8039 -116.3658 47600.5207 6.0927 6.1291
ENERGY: 315000 1.9886 2.7284 1.1944 0.0000 -18220.5830 2514.8597 0.0000 0.0000 2531.5127 -13168.2992 267.2643 -15699.8119 -13160.1128 270.2600 38.5027 122.4115 47237.3334 2.2717 1.5328
ENERGY: 325000 2.4518 2.9886 2.6191 0.0000 -18338.4155 2655.6802 0.0000 0.0000 2541.7179 -13132.9580 268.3417 -15674.6758 -13128.0494 271.1498 540.1311 613.8198 47445.4929 5.9077 6.0845
TCL: Running 1000000 steps at 300 kelvin.
TCL: Setting parameter langevinTemp to 300
TCL: Running for 1000000 steps
ETITLE: TS BOND ANGLE DIHED IMPRP ELECT VDW BOUNDARY MISC KINETIC TOTAL TEMP POTENTIAL TOTAL3 TEMPAVG PRESSURE GPRESSURE VOLUME PRESSAVG GPRESSAVG
ENERGY: 325000 2.4518 2.9886 2.6191 0.0000 -18338.4155 2655.6802 0.0000 0.0000 2540.4413 -13134.2345 268.2069 -15674.6758 -13129.5011 268.2069 535.4747 614.2683 47445.4929 535.4747 614.2683
ENERGY: 525000 1.2512 1.0423 1.5681 0.0000 -17375.1461 2277.3224 0.0000 0.0000 2827.5736 -12266.3885 298.5209 -15093.9622 -12260.2053 301.7560 -441.8681 -367.3560 49285.0354 3.8646 3.7730
ENERGY: 725000 4.0570 1.6034 3.1844 0.0000 -17111.5129 2258.1035 0.0000 0.0000 2913.4976 -11931.0671 307.5923 -14844.5647 -11925.9250 301.5346 -256.1995 -114.7053 49829.4817 1.2590 1.0018
ENERGY: 925000 2.1692 4.9897 3.4268 0.0000 -17506.6301 2420.0058 0.0000 0.0000 2892.8581 -12183.1805 305.4133 -15076.0386 -12172.3804 301.0244 370.4436 402.7206 48887.7132 1.0051 1.0018
ENERGY: 1125000 1.7244 3.1037 1.9339 0.0000 -17416.7596 2425.1996 0.0000 0.0000 2786.4434 -12198.3546 294.1786 -14984.7981 -12193.2296 298.7505 525.2486 593.2858 48809.9495 1.8401 1.7808
ENERGY: 1325000 1.1381 3.3938 2.5460 0.0000 -17332.2574 2366.8203 0.0000 0.0000 2946.3349 -12012.0243 311.0591 -14958.3592 -12006.8715 300.2059 189.2449 277.1287 49202.3396 1.4172 1.0607
TCL: Exiting due to exit command.
