Info: SIMULATION PARAMETERS:
Info: TIMESTEP               2
Info: NUMBER OF STEPS        0
Info: STEPS PER CYCLE        10
Info: PERIODIC CELL BASIS 1  42.113 0 0
Info: PERIODIC CELL BASIS 2  0 41.891 0
Info: PERIODIC CELL BASIS 3  0 0 41.374
Info: PERIODIC CELL CENTER   0 0 0
Info: WRAPPING WATERS AROUND PERIODIC BOUNDARIES ON OUTPUT.
Info: WRAPPING ALL CLUSTERS AROUND PERIODIC BOUNDARIES ON OUTPUT.
Info: FIRST LDB TIMESTEP     50
Info: LAST LDB TIMESTEP     -1
Info: HOM BACKGROUND SCALING 1
Info: PME BACKGROUND SCALING 1
Info: MIN ATOMS PER PATCH    40
Info: EMPTY PATCH LOAD       40 ATOMS
Info: INITIAL TEMPERATURE    300
Info: CENTER OF MASS MOVING INITIALLY? NO
Info: DIELECTRIC             1
Info: EXCLUDE                SCALED ONE-FOUR
Info: 1-4 ELECTROSTATICS SCALED BY 0.833333
Info: MODIFIED 1-4 VDW PARAMETERS WILL BE USED
Info: DCD FILENAME           mobley_9653690_min.dcd
Info: DCD FREQUENCY          5000
Info: DCD FIRST STEP         5000
Info: DCD FILE WILL CONTAIN UNIT CELL DATA
Info: XST FILENAME           mobley_9653690_min.xst
Info: XST FREQUENCY          5000
Info: NO VELOCITY DCD OUTPUT
Info: NO FORCE DCD OUTPUT
Info: OUTPUT FILENAME        mobley_9653690_min
Info: BINARY OUTPUT FILES WILL BE USED
Info: RESTART FILENAME       mobley_9653690_min.restart
Info: RESTART FREQUENCY      5000
Info: BINARY RESTART FILES WILL BE USED
Info: CUTOFF                 9
Info: PAIRLIST DISTANCE      11
Info: PAIRLIST SHRINK RATE   0.01
Info: PAIRLIST GROW RATE     0.01
Info: PAIRLIST TRIGGER       0.3
Info: PAIRLISTS PER CYCLE    2
Info: PAIRLISTS ENABLED
Info: MARGIN                 8
Info: HYDROGEN GROUP CUTOFF  2.5
Info: PATCH DIMENSION        21.5
Info: ENERGY OUTPUT STEPS    5000
Info: ENERGY EVALUATION STEPS    5000
Info: OUTPUT ENERGY PRECISION 4
Info: CROSSTERM ENERGY INCLUDED IN DIHEDRAL
Info: TIMING OUTPUT STEPS    50000
Info: PRESSURE OUTPUT STEPS  5000
Info: LANGEVIN DYNAMICS ACTIVE
Info: LANGEVIN TEMPERATURE   300
Info: LANGEVIN USING BBK INTEGRATOR
Info: LANGEVIN DAMPING COEFFICIENT IS 1 INVERSE PS
Info: LANGEVIN DYNAMICS APPLIED TO HYDROGENS
Info: LANGEVIN PISTON PRESSURE CONTROL ACTIVE
Info:        TARGET PRESSURE IS 1.01325 BAR
Info:     OSCILLATION PERIOD IS 50 FS
Info:             DECAY TIME IS 25 FS
Info:     PISTON TEMPERATURE IS 300 K
Info:       PRESSURE CONTROL IS GROUP-BASED
Info:    INITIAL STRAIN RATE IS 0 0 0
Info:       CELL FLUCTUATION IS ISOTROPIC
Info: PARTICLE MESH EWALD (PME) ACTIVE
Info: PME TOLERANCE               1e-06
Info: PME EWALD COEFFICIENT       0.348832
Info: PME INTERPOLATION ORDER     4
Info: PME GRID DIMENSIONS         44 44 44
Info: PME MAXIMUM GRID SPACING    1
Info: FULL ELECTROSTATIC EVALUATION FREQUENCY      2
Info: USING VERLET I (r-RESPA) MTS SCHEME.
Info: C1 SPLITTING OF LONG RANGE ELECTROSTATICS
Info: PLACING ATOMS IN PATCHES BY HYDROGEN GROUPS
Info: RIGID BONDS TO HYDROGEN : ALL
Info:         ERROR TOLERANCE : 1e-08
Info:          MAX ITERATIONS : 100
Info: RIGID WATER USING SETTLE ALGORITHM
Info: RANDOM NUMBER SEED     1741404750
Info: USE HYDROGEN BONDS?    NO
Info: Using AMBER format force field!
Info: AMBER PARM FILE        mobley_9653690.prmtop
Info: COORDINATE PDB         mobley_9653690.pdb
Info: Exclusions will be read from PARM file!
Info: SCNB (VDW SCALING)     2
Info: USING ARITHMETIC MEAN TO COMBINE L-J SIGMA PARAMETERS
Info: SUMMARY OF PARAMETERS:
Info: 10 BONDS
Info: 16 ANGLES
Info:   16 HARMONIC
Info:   0 COSINE-BASED
Info: 16 DIHEDRAL
Info: 0 IMPROPER
Info: 0 CROSSTERM
Info: 0 VDW
Info: 45 VDW_PAIRS
Info: 0 NBTHOLE_PAIRS
Info: STRUCTURE SUMMARY:
Info: 5319 ATOMS
Info: 5319 BONDS
Info: 49 ANGLES
Info: 72 DIHEDRALS
Info: 0 IMPROPERS
Info: 0 CROSSTERMS
Info: 5433 EXCLUSIONS
Info: 5308 RIGID BONDS
Info: 10649 DEGREES OF FREEDOM
Info: 1775 HYDROGEN GROUPS
Info: 4 ATOMS IN LARGEST HYDROGEN GROUP
Info: 1775 MIGRATION GROUPS
Info: 4 ATOMS IN LARGEST MIGRATION GROUP
Info: TOTAL MASS = 31932.5 amu
Info: TOTAL CHARGE = -3.72529e-09 e
Info: MASS DENSITY = 0.726486 g/cm^3
Info: ATOM DENSITY = 0.0728728 atoms/A^3
Info: ADDED 0 IMPLICIT EXCLUSIONS
Info: NONBONDED TABLE R-SQUARED SPACING: 0.0625
Info: NONBONDED TABLE SIZE: 705 POINTS
Info: REMOVING COM VELOCITY 0.0212816 -0.00545283 -0.033075
TCL: Minimizing for 2000 steps
ETITLE: TS BOND ANGLE DIHED IMPRP ELECT VDW BOUNDARY MISC KINETIC TOTAL TEMP POTENTIAL TOTAL3 TEMPAVG PRESSURE GPRESSURE VOLUME PRESSAVG GPRESSAVG
ENERGY: 0 0.0868 1.8737 7.2499 0.0000 -16684.9389 1882.4046 0.0000 0.0000 0.0000 -14793.3239 0.0000 -14793.3239 -14793.3239 0.0000 11322.9945 -16065.8076 72990.1772 11322.9945 -16065.8076
ENERGY: 400 13.6566 5.6921 5.1960 0.0000 -22315.8064 3210.0444 0.0000 0.0000 0.0000 -19081.2172 0.0000 -19081.2172 -19081.2172 0.0000 15769.5757 15575.1084 72990.1772 15769.5757 15575.1084
ENERGY: 800 4.1597 1.9510 5.4138 0.0000 -23433.4852 3757.6914 0.0000 0.0000 0.0000 -19664.2693 0.0000 -19664.2693 -19664.2693 0.0000 18111.4547 17890.5725 72990.1772 18111.4547 17890.5725
ENERGY: 1200 0.8863 1.2108 5.4385 0.0000 -23867.3160 3956.9331 0.0000 0.0000 0.0000 -19902.8472 0.0000 -19902.8472 -19902.8472 0.0000 18981.8217 18702.4292 72990.1772 18981.8217 18702.4292
ENERGY: 1600 0.3624 1.3439 5.3223 0.0000 -24098.3354 4051.8847 0.0000 0.0000 0.0000 -20039.4221 0.0000 -20039.4221 -20039.4221 0.0000 19427.6053 19091.0214 72990.1772 19427.6053 19091.0214
ENERGY: 2000 0.4769 1.1295 5.1588 0.0000 -24272.4239 4135.8608 0.0000 0.0000 0.0000 -20129.7979 0.0000 -20129.7979 -20129.7979 0.0000 19842.7884 19538.4299 72990.1772 19842.7884 19538.4299
TCL: Exiting due to exit command.
Info: NAMD 3.0.1 for Linux-x86_64-multicore
Info: Please visit http://www.ks.uiuc.edu/Research/namd/
Info: for updates, documentation, and support information.
Info: Please cite Phillips et al., J. Chem. Phys. 153:044130 (2020) doi:10.1063/5.0014475
Info: in all publications reporting results obtained with NAMD.
Info: Based on Charm++/Converse 80000 for multicore-linux-x86_64-gcc
Info: Built Mon Oct 14 11:11:06 CDT 2024 by dhardy on athine.ks.uiuc.edu
Info: 1 NAMD  3.0.1  Linux-x86_64-multicore  16    k012  z5358697
Info: Running on 16 processors, 1 nodes, 1 physical nodes.
Info: CPU topology information available.
Info: Charm++/Converse parallel runtime startup completed at 0.0100471 s
Info: 1043.45 MB of memory in use based on /proc/self/stat
Info: Configuration file is mobley_9653690_equil.namd
Info: Working in the current directory /srv/scratch/z5358697/prod_prep_12/9653690
TCL: Running 25000 steps at 30 kelvin.
TCL: Suspending until startup complete.
Info: SIMULATION PARAMETERS:
Info: TIMESTEP               2
Info: NUMBER OF STEPS        0
Info: STEPS PER CYCLE        10
Info: PERIODIC CELL BASIS 1  42.113 0 0
Info: PERIODIC CELL BASIS 2  0 41.891 0
Info: PERIODIC CELL BASIS 3  0 0 41.374
Info: PERIODIC CELL CENTER   0 0 0
Info: WRAPPING WATERS AROUND PERIODIC BOUNDARIES ON OUTPUT.
Info: WRAPPING ALL CLUSTERS AROUND PERIODIC BOUNDARIES ON OUTPUT.
Info: FIRST LDB TIMESTEP     50
Info: LAST LDB TIMESTEP     -1
Info: HOM BACKGROUND SCALING 1
Info: PME BACKGROUND SCALING 1
Info: MIN ATOMS PER PATCH    40
Info: EMPTY PATCH LOAD       40 ATOMS
Info: INITIAL TEMPERATURE    300
Info: CENTER OF MASS MOVING INITIALLY? NO
Info: DIELECTRIC             1
Info: EXCLUDE                SCALED ONE-FOUR
Info: 1-4 ELECTROSTATICS SCALED BY 0.833333
Info: MODIFIED 1-4 VDW PARAMETERS WILL BE USED
Info: DCD FILENAME           mobley_9653690_equil.dcd
Info: DCD FREQUENCY          5000
Info: DCD FIRST STEP         5000
Info: DCD FILE WILL CONTAIN UNIT CELL DATA
Info: XST FILENAME           mobley_9653690_equil.xst
Info: XST FREQUENCY          5000
Info: NO VELOCITY DCD OUTPUT
Info: NO FORCE DCD OUTPUT
Info: OUTPUT FILENAME        mobley_9653690_equil
Info: BINARY OUTPUT FILES WILL BE USED
Info: RESTART FILENAME       mobley_9653690_equil.restart
Info: RESTART FREQUENCY      5000
Info: BINARY RESTART FILES WILL BE USED
Info: CUTOFF                 9
Info: PAIRLIST DISTANCE      11
Info: PAIRLIST SHRINK RATE   0.01
Info: PAIRLIST GROW RATE     0.01
Info: PAIRLIST TRIGGER       0.3
Info: PAIRLISTS PER CYCLE    2
Info: PAIRLISTS ENABLED
Info: MARGIN                 8
Info: HYDROGEN GROUP CUTOFF  2.5
Info: PATCH DIMENSION        21.5
Info: ENERGY OUTPUT STEPS    5000
Info: ENERGY EVALUATION STEPS    5000
Info: OUTPUT ENERGY PRECISION 4
Info: CROSSTERM ENERGY INCLUDED IN DIHEDRAL
Info: TIMING OUTPUT STEPS    50000
Info: PRESSURE OUTPUT STEPS  5000
Info: LANGEVIN DYNAMICS ACTIVE
Info: LANGEVIN TEMPERATURE   30
Info: LANGEVIN USING BBK INTEGRATOR
Info: LANGEVIN DAMPING COEFFICIENT IS 1 INVERSE PS
Info: LANGEVIN DYNAMICS APPLIED TO HYDROGENS
Info: LANGEVIN PISTON PRESSURE CONTROL ACTIVE
Info:        TARGET PRESSURE IS 1.01325 BAR
Info:     OSCILLATION PERIOD IS 50 FS
Info:             DECAY TIME IS 25 FS
Info:     PISTON TEMPERATURE IS 300 K
Info:       PRESSURE CONTROL IS GROUP-BASED
Info:    INITIAL STRAIN RATE IS 0 0 0
Info:       CELL FLUCTUATION IS ISOTROPIC
Info: PARTICLE MESH EWALD (PME) ACTIVE
Info: PME TOLERANCE               1e-06
Info: PME EWALD COEFFICIENT       0.348832
Info: PME INTERPOLATION ORDER     4
Info: PME GRID DIMENSIONS         44 44 44
Info: PME MAXIMUM GRID SPACING    1
Info: FULL ELECTROSTATIC EVALUATION FREQUENCY      2
Info: USING VERLET I (r-RESPA) MTS SCHEME.
Info: C1 SPLITTING OF LONG RANGE ELECTROSTATICS
Info: PLACING ATOMS IN PATCHES BY HYDROGEN GROUPS
Info: RIGID BONDS TO HYDROGEN : ALL
Info:         ERROR TOLERANCE : 1e-08
Info:          MAX ITERATIONS : 100
Info: RIGID WATER USING SETTLE ALGORITHM
Info: RANDOM NUMBER SEED     1741404766
Info: USE HYDROGEN BONDS?    NO
Info: Using AMBER format force field!
Info: AMBER PARM FILE        mobley_9653690.prmtop
Info: COORDINATE PDB         mobley_9653690.pdb
Info: Exclusions will be read from PARM file!
Info: SCNB (VDW SCALING)     2
Info: USING ARITHMETIC MEAN TO COMBINE L-J SIGMA PARAMETERS
Info: BINARY COORDINATES     mobley_9653690_min.coor
Info: SUMMARY OF PARAMETERS:
Info: 10 BONDS
Info: 16 ANGLES
Info:   16 HARMONIC
Info:   0 COSINE-BASED
Info: 16 DIHEDRAL
Info: 0 IMPROPER
Info: 0 CROSSTERM
Info: 0 VDW
Info: 45 VDW_PAIRS
Info: 0 NBTHOLE_PAIRS
Info: STRUCTURE SUMMARY:
Info: 5319 ATOMS
Info: 5319 BONDS
Info: 49 ANGLES
Info: 72 DIHEDRALS
Info: 0 IMPROPERS
Info: 0 CROSSTERMS
Info: 5433 EXCLUSIONS
Info: 5308 RIGID BONDS
Info: 10649 DEGREES OF FREEDOM
Info: 1775 HYDROGEN GROUPS
Info: 4 ATOMS IN LARGEST HYDROGEN GROUP
Info: 1775 MIGRATION GROUPS
Info: 4 ATOMS IN LARGEST MIGRATION GROUP
Info: TOTAL MASS = 31932.5 amu
Info: TOTAL CHARGE = -3.72529e-09 e
Info: MASS DENSITY = 0.726486 g/cm^3
Info: ATOM DENSITY = 0.0728728 atoms/A^3
Info: ADDED 0 IMPLICIT EXCLUSIONS
Info: NONBONDED TABLE R-SQUARED SPACING: 0.0625
Info: NONBONDED TABLE SIZE: 705 POINTS
Info: REMOVING COM VELOCITY -0.0339001 0.0505365 0.0547937
TCL: Running for 25000 steps
ETITLE: TS BOND ANGLE DIHED IMPRP ELECT VDW BOUNDARY MISC KINETIC TOTAL TEMP POTENTIAL TOTAL3 TEMPAVG PRESSURE GPRESSURE VOLUME PRESSAVG GPRESSAVG
ENERGY: 0 0.4769 1.1295 5.1588 0.0000 -24272.4238 4135.8608 0.0000 0.0000 3291.7241 -16838.0738 311.1036 -20129.7979 -16837.3795 311.1036 19.6573 65.7154 72990.1772 19.6573 65.7154
ENERGY: 5000 0.5765 2.1430 5.7254 0.0000 -25657.8604 4624.3058 0.0000 0.0000 323.5137 -20701.5960 30.5755 -21025.1097 -20700.6111 47.9504 1122.2224 1187.8081 51678.3278 5.2146 5.3346
ENERGY: 10000 0.6289 2.0888 5.2858 0.0000 -25385.4102 4330.8257 0.0000 0.0000 319.0714 -20727.5096 30.1557 -21046.5810 -20726.8957 29.9750 -297.0094 -249.0100 52031.2013 2.5967 2.4867
ENERGY: 15000 0.7961 2.4810 5.4346 0.0000 -25369.0223 4301.8925 0.0000 0.0000 319.7197 -20738.6985 30.2170 -21058.4181 -20737.8863 30.1240 -524.5826 -472.1196 52281.6139 1.4111 1.0684
ENERGY: 20000 0.9327 2.1553 5.5984 0.0000 -25508.0810 4423.1869 0.0000 0.0000 317.6164 -20758.5911 30.0182 -21076.2075 -20757.8107 30.0760 -38.3854 3.5517 52070.5293 -0.4223 -0.3644
ENERGY: 25000 0.7665 1.9225 5.5722 0.0000 -25446.4835 4357.6456 0.0000 0.0000 312.8523 -20767.7244 29.5679 -21080.5767 -20766.9931 30.2134 -286.8689 -249.5732 52108.1878 1.7720 1.8552
TCL: Running 25000 steps at 60 kelvin.
TCL: Setting parameter langevinTemp to 60
TCL: Running for 25000 steps
ETITLE: TS BOND ANGLE DIHED IMPRP ELECT VDW BOUNDARY MISC KINETIC TOTAL TEMP POTENTIAL TOTAL3 TEMPAVG PRESSURE GPRESSURE VOLUME PRESSAVG GPRESSAVG
ENERGY: 25000 0.7665 1.9225 5.5722 0.0000 -25446.4835 4357.6456 0.0000 0.0000 312.6877 -20767.8890 29.5524 -21080.5767 -20767.2945 29.5524 -299.9779 -249.3521 52108.1878 -299.9779 -249.3521
ENERGY: 30000 1.1583 3.2859 5.9329 0.0000 -25060.7718 4261.1121 0.0000 0.0000 627.5209 -20161.7617 59.3075 -20789.2826 -20160.1170 57.2598 -101.1836 -46.4334 52146.3620 3.1252 3.2652
ENERGY: 35000 0.5801 4.5191 5.9934 0.0000 -25357.6599 4501.0241 0.0000 0.0000 634.3336 -20211.2096 59.9514 -20845.5432 -20209.6566 60.2149 949.4599 988.7121 51803.6192 5.6648 5.4788
ENERGY: 40000 0.8197 2.8453 5.3230 0.0000 -25346.0181 4442.3428 0.0000 0.0000 633.5542 -20261.1332 59.8777 -20894.6874 -20259.8891 60.1133 632.9340 678.3195 51647.6554 1.6135 1.9165
ENERGY: 45000 0.4196 3.8347 5.0023 0.0000 -25322.1103 4408.0778 0.0000 0.0000 629.4338 -20275.3420 59.4883 -20904.7758 -20273.7232 60.0463 378.8443 423.5139 51801.7145 2.8348 3.0010
ENERGY: 50000 0.8343 2.9655 5.1985 0.0000 -25287.4642 4355.5566 0.0000 0.0000 634.7779 -20288.1315 59.9934 -20922.9093 -20286.8529 60.1687 146.7577 184.9238 51795.5403 4.3667 4.1015
TCL: Running 25000 steps at 90 kelvin.
TCL: Setting parameter langevinTemp to 90
TCL: Running for 25000 steps
ETITLE: TS BOND ANGLE DIHED IMPRP ELECT VDW BOUNDARY MISC KINETIC TOTAL TEMP POTENTIAL TOTAL3 TEMPAVG PRESSURE GPRESSURE VOLUME PRESSAVG GPRESSAVG
ENERGY: 50000 0.8343 2.9655 5.1985 0.0000 -25287.4642 4355.5566 0.0000 0.0000 634.4589 -20288.4505 59.9632 -20922.9093 -20287.1588 59.9632 128.1663 184.7783 51795.5403 128.1663 184.7783
ENERGY: 55000 1.1300 2.8514 5.6488 0.0000 -24825.4267 4207.2835 0.0000 0.0000 957.6370 -19650.8760 90.5071 -20608.5131 -19648.7960 87.0938 6.2258 78.1838 52167.8751 8.1036 8.2443
ENERGY: 60000 1.9362 3.5665 5.3855 0.0000 -24961.1251 4302.7206 0.0000 0.0000 974.6839 -19672.8324 92.1182 -20647.5163 -19670.5637 90.3917 311.6275 383.0345 52151.2857 3.3311 3.7131
ENERGY: 65000 0.7018 4.0479 5.6349 0.0000 -24910.0018 4252.0231 0.0000 0.0000 958.4100 -19689.1842 90.5801 -20647.5942 -19686.9692 90.1930 149.2110 222.3766 52096.2307 4.7932 4.7260
ENERGY: 70000 1.2606 4.6967 5.5588 0.0000 -25023.0033 4306.0144 0.0000 0.0000 945.2523 -19760.2204 89.3366 -20705.4727 -19757.5003 90.2610 274.7680 333.8053 51964.2930 0.8427 0.6441
ENERGY: 75000 2.0197 3.9975 5.8690 0.0000 -24818.4481 4085.4845 0.0000 0.0000 935.9756 -19785.1018 88.4598 -20721.0774 -19782.7316 89.7764 -721.1063 -674.7543 52139.3672 1.6743 1.8324
TCL: Running 25000 steps at 120 kelvin.
TCL: Setting parameter langevinTemp to 120
TCL: Running for 25000 steps
ETITLE: TS BOND ANGLE DIHED IMPRP ELECT VDW BOUNDARY MISC KINETIC TOTAL TEMP POTENTIAL TOTAL3 TEMPAVG PRESSURE GPRESSURE VOLUME PRESSAVG GPRESSAVG
ENERGY: 75000 2.0197 3.9975 5.8690 0.0000 -24818.4481 4085.4845 0.0000 0.0000 935.4959 -19785.5816 88.4145 -20721.0774 -19783.6189 88.4145 -734.2855 -675.0713 52139.3672 -734.2855 -675.0713
ENERGY: 80000 0.8932 4.6015 6.2395 0.0000 -24633.9650 4256.6205 0.0000 0.0000 1266.3651 -19099.2453 119.6852 -20365.6103 -19097.1721 116.9720 840.4994 907.1658 51857.1175 4.7511 4.6180
ENERGY: 85000 0.7766 6.4482 5.5563 0.0000 -24404.2993 3982.5930 0.0000 0.0000 1279.8928 -19129.0324 120.9637 -20408.9252 -19124.3838 119.8562 -562.4521 -504.7742 52247.1241 4.6151 4.4458
ENERGY: 90000 1.6800 5.6776 5.9611 0.0000 -24601.7931 4189.7808 0.0000 0.0000 1284.3994 -19114.2942 121.3896 -20398.6936 -19110.2194 119.8877 405.2207 481.2541 51887.6321 -1.9128 -1.4387
ENERGY: 95000 1.2994 5.3628 5.4953 0.0000 -24690.6518 4192.0668 0.0000 0.0000 1286.9943 -19199.4331 121.6349 -20486.4274 -19195.6347 119.6112 298.0209 369.5003 51764.2575 1.8652 1.8295
ENERGY: 100000 1.5561 6.1059 5.2016 0.0000 -24681.9836 4155.3146 0.0000 0.0000 1306.1898 -19207.6155 123.4491 -20513.8053 -19204.1439 120.9520 107.1967 175.8971 51783.6316 -0.6980 -1.0625
TCL: Running 25000 steps at 150 kelvin.
TCL: Setting parameter langevinTemp to 150
TCL: Running for 25000 steps
ETITLE: TS BOND ANGLE DIHED IMPRP ELECT VDW BOUNDARY MISC KINETIC TOTAL TEMP POTENTIAL TOTAL3 TEMPAVG PRESSURE GPRESSURE VOLUME PRESSAVG GPRESSAVG
ENERGY: 100000 1.5561 6.1059 5.2016 0.0000 -24681.9836 4155.3146 0.0000 0.0000 1305.5402 -19208.2651 123.3877 -20513.8053 -19205.5441 123.3877 114.1936 175.6164 51783.6316 114.1936 175.6164
ENERGY: 105000 2.9161 5.2933 5.3274 0.0000 -24008.7069 3890.1383 0.0000 0.0000 1610.5893 -18494.4425 152.2181 -20105.0318 -18490.5440 146.7865 -272.1845 -234.3583 51971.3823 1.6499 1.7537
ENERGY: 110000 1.6150 6.3290 5.7251 0.0000 -24078.4939 3896.4543 0.0000 0.0000 1606.9947 -18561.3759 151.8784 -20168.3706 -18555.9459 150.4748 -372.5905 -305.2491 51673.4702 2.1420 2.8893
ENERGY: 115000 2.3965 8.5415 6.6480 0.0000 -24022.1232 3865.0226 0.0000 0.0000 1583.6477 -18555.8670 149.6719 -20139.5147 -18551.5428 149.9871 -491.6210 -479.0901 51920.7980 6.1552 6.2844
ENERGY: 120000 1.8284 3.4890 5.4819 0.0000 -24334.7406 4111.5626 0.0000 0.0000 1601.6101 -18610.7686 151.3695 -20212.3787 -18605.8960 149.2598 685.4710 735.9901 51402.2947 -0.1238 0.0793
ENERGY: 125000 1.9936 6.4749 7.1066 0.0000 -24205.3755 4027.4521 0.0000 0.0000 1615.0969 -18547.2515 152.6441 -20162.3485 -18542.0898 150.4212 277.1796 323.9759 51736.6300 5.0853 5.4184
TCL: Running 50000 steps at 180 kelvin.
TCL: Setting parameter langevinTemp to 180
TCL: Running for 50000 steps
ETITLE: TS BOND ANGLE DIHED IMPRP ELECT VDW BOUNDARY MISC KINETIC TOTAL TEMP POTENTIAL TOTAL3 TEMPAVG PRESSURE GPRESSURE VOLUME PRESSAVG GPRESSAVG
ENERGY: 125000 1.9936 6.4749 7.1066 0.0000 -24205.3755 4027.4521 0.0000 0.0000 1614.3069 -18548.0416 152.5695 -20162.3485 -18545.2346 152.5695 269.3605 324.9748 51736.6300 269.3605 324.9748
ENERGY: 135000 3.2658 10.6404 6.0603 0.0000 -23444.1017 3768.5143 0.0000 0.0000 1891.2824 -17764.3384 178.7467 -19655.6208 -17758.5736 180.7705 95.2131 150.7523 51732.3440 0.0462 -0.2745
ENERGY: 145000 2.2209 7.2517 7.0636 0.0000 -23496.9723 3824.6663 0.0000 0.0000 1884.6820 -17771.0877 178.1228 -19655.7697 -17768.1021 179.4552 467.5605 527.2768 51576.5424 5.2321 5.6229
ENERGY: 155000 1.2865 5.5959 6.2520 0.0000 -23181.9460 3529.7470 0.0000 0.0000 1977.0885 -17661.9761 186.8563 -19639.0646 -17656.9640 181.3151 -907.2350 -850.8443 51977.6852 6.1496 5.9432
ENERGY: 165000 1.2271 7.4611 5.9315 0.0000 -23343.4476 3605.4372 0.0000 0.0000 1912.0420 -17811.3488 180.7087 -19723.3908 -17805.0293 180.2818 -711.6379 -654.0995 51769.9548 6.6857 5.9644
ENERGY: 175000 1.7624 7.8285 7.0113 0.0000 -23683.3728 3866.2241 0.0000 0.0000 1940.0540 -17860.4925 183.3561 -19800.5465 -17856.9747 179.5700 181.9264 259.2223 52003.8060 1.6644 2.1445
TCL: Running 50000 steps at 210 kelvin.
TCL: Setting parameter langevinTemp to 210
TCL: Running for 50000 steps
ETITLE: TS BOND ANGLE DIHED IMPRP ELECT VDW BOUNDARY MISC KINETIC TOTAL TEMP POTENTIAL TOTAL3 TEMPAVG PRESSURE GPRESSURE VOLUME PRESSAVG GPRESSAVG
ENERGY: 175000 1.7624 7.8285 7.0113 0.0000 -23683.3728 3866.2241 0.0000 0.0000 1939.1019 -17861.4446 183.2661 -19800.5465 -17857.5870 183.2661 191.9478 258.7439 52003.8060 191.9478 258.7439
ENERGY: 185000 3.2619 11.1890 5.6949 0.0000 -22309.7368 3340.7487 0.0000 0.0000 2216.5619 -16732.2803 209.4891 -18948.8422 -16729.4875 209.0502 -458.3769 -379.4048 51892.3689 3.6885 3.6224
ENERGY: 195000 3.8292 11.2411 6.3709 0.0000 -22401.5289 3475.6096 0.0000 0.0000 2286.3843 -16618.0937 216.0881 -18904.4781 -16609.9196 210.7447 398.6513 435.2608 51765.0906 3.9479 4.1748
ENERGY: 205000 1.3056 12.0841 8.5091 0.0000 -22492.7076 3505.2404 0.0000 0.0000 2219.8140 -16745.7544 209.7965 -18965.5684 -16741.0595 208.5339 523.6399 608.7815 51521.7937 7.2362 6.8104
ENERGY: 215000 2.5861 6.8464 6.6063 0.0000 -22459.0920 3452.2274 0.0000 0.0000 2206.7577 -16784.0681 208.5625 -18990.8257 -16779.1592 210.7387 154.8810 200.6846 51782.8746 1.1717 1.5809
ENERGY: 225000 2.2140 8.2081 5.9673 0.0000 -22298.2462 3383.9660 0.0000 0.0000 2228.1900 -16669.7009 210.5881 -18897.8909 -16665.3452 209.8047 -72.7217 -3.5302 51950.7251 6.2042 6.2730
TCL: Running 50000 steps at 240 kelvin.
TCL: Setting parameter langevinTemp to 240
TCL: Running for 50000 steps
ETITLE: TS BOND ANGLE DIHED IMPRP ELECT VDW BOUNDARY MISC KINETIC TOTAL TEMP POTENTIAL TOTAL3 TEMPAVG PRESSURE GPRESSURE VOLUME PRESSAVG GPRESSAVG
ENERGY: 225000 2.2140 8.2081 5.9673 0.0000 -22298.2462 3383.9660 0.0000 0.0000 2227.0498 -16670.8412 210.4803 -18897.8909 -16666.9394 210.4803 -95.6346 -4.0105 51950.7251 -95.6346 -4.0105
ENERGY: 235000 2.8948 9.9000 6.9522 0.0000 -21112.2374 2974.8390 0.0000 0.0000 2543.1693 -15574.4821 240.3570 -18117.6514 -15566.4063 238.9267 -518.8839 -445.0534 52584.1747 1.3612 0.8747
ENERGY: 245000 1.7829 11.6694 12.3618 0.0000 -21247.3969 3097.5511 0.0000 0.0000 2534.3489 -15589.6828 239.5234 -18124.0318 -15584.8697 239.4866 70.4930 152.4805 52304.4634 0.4290 0.4876
ENERGY: 255000 1.9904 10.2130 6.4715 0.0000 -21060.8393 2879.4458 0.0000 0.0000 2527.6637 -15635.0548 238.8916 -18162.7185 -15628.6878 238.9543 -1168.7909 -1095.3877 52928.3305 0.6771 0.9546
ENERGY: 265000 2.8784 8.2319 6.7599 0.0000 -21307.5161 3111.3866 0.0000 0.0000 2552.5207 -15625.7386 241.2408 -18178.2593 -15619.6737 241.1988 -135.4419 -62.9307 52869.9613 -0.1350 -0.1519
ENERGY: 275000 2.8039 10.3025 6.2467 0.0000 -21272.5701 3042.0840 0.0000 0.0000 2599.9221 -15611.2109 245.7208 -18211.1330 -15605.8383 239.5806 -439.2376 -343.6908 52667.8797 0.7632 1.1287
TCL: Running 50000 steps at 270 kelvin.
TCL: Setting parameter langevinTemp to 270
TCL: Running for 50000 steps
ETITLE: TS BOND ANGLE DIHED IMPRP ELECT VDW BOUNDARY MISC KINETIC TOTAL TEMP POTENTIAL TOTAL3 TEMPAVG PRESSURE GPRESSURE VOLUME PRESSAVG GPRESSAVG
ENERGY: 275000 2.8039 10.3025 6.2467 0.0000 -21272.5701 3042.0840 0.0000 0.0000 2598.6176 -15612.5154 245.5975 -18211.1330 -15607.6627 245.5975 -415.6388 -343.8854 52667.8797 -415.6388 -343.8854
ENERGY: 285000 0.9792 10.2068 7.1611 0.0000 -20076.5577 2645.2515 0.0000 0.0000 2853.4779 -14559.4812 269.6845 -17412.9591 -14551.3470 270.1315 -921.0234 -827.0445 54004.9991 0.5117 0.2357
ENERGY: 295000 2.6511 8.8330 7.9152 0.0000 -20210.3601 2772.7197 0.0000 0.0000 2847.7984 -14570.4428 269.1478 -17418.2411 -14565.3802 272.6314 -298.6471 -251.5608 53653.6209 5.6235 4.7339
ENERGY: 305000 3.1227 10.5611 6.4918 0.0000 -20235.2395 2832.2708 0.0000 0.0000 2868.9238 -14513.8693 271.1444 -17382.7931 -14509.4112 269.4969 -14.8564 114.5404 53254.9928 0.0918 0.1560
ENERGY: 315000 3.0578 9.7909 6.3262 0.0000 -20269.3110 2813.3482 0.0000 0.0000 2857.6562 -14579.1317 270.0794 -17436.7879 -14573.5480 268.7057 -145.5756 -49.1288 53532.6781 2.6592 2.2065
ENERGY: 325000 4.5153 8.0359 6.8811 0.0000 -20218.4623 2856.8548 0.0000 0.0000 2894.0435 -14448.1316 273.5184 -17342.1751 -14446.6082 270.5236 152.1778 291.4539 53098.6279 1.4875 1.7817
TCL: Running 1000000 steps at 300 kelvin.
TCL: Setting parameter langevinTemp to 300
TCL: Running for 1000000 steps
ETITLE: TS BOND ANGLE DIHED IMPRP ELECT VDW BOUNDARY MISC KINETIC TOTAL TEMP POTENTIAL TOTAL3 TEMPAVG PRESSURE GPRESSURE VOLUME PRESSAVG GPRESSAVG
ENERGY: 325000 4.5153 8.0359 6.8811 0.0000 -20218.4623 2856.8548 0.0000 0.0000 2892.6565 -14449.5186 273.3874 -17342.1751 -14445.4603 273.3874 200.8262 289.0136 53098.6279 200.8262 289.0136
ENERGY: 525000 2.0717 11.3914 7.0109 0.0000 -19174.5786 2532.5794 0.0000 0.0000 3207.3338 -13414.1913 303.1278 -16621.5251 -13409.7237 300.4456 -338.9158 -190.8004 54918.4911 -0.2083 -0.3715
ENERGY: 725000 3.5074 16.7900 6.6299 0.0000 -19296.4245 2559.7290 0.0000 0.0000 3204.1754 -13505.5928 302.8293 -16709.7682 -13499.9162 300.1816 -305.7813 -234.1097 55201.7347 -1.1685 -1.2422
ENERGY: 925000 2.7440 16.1452 6.5104 0.0000 -19281.8095 2546.3566 0.0000 0.0000 3116.7179 -13593.3355 294.5636 -16710.0534 -13585.5309 302.1537 -544.2402 -424.1570 55559.2957 6.7783 6.6591
ENERGY: 1125000 4.0264 9.9036 6.5433 0.0000 -19217.7719 2569.8426 0.0000 0.0000 3197.2081 -13430.2478 302.1708 -16627.4559 -13423.4822 300.6995 -83.9775 9.5031 55015.9675 -0.0266 0.1709
ENERGY: 1325000 3.2932 10.3000 7.1726 0.0000 -19248.4814 2541.2234 0.0000 0.0000 3202.3668 -13484.1254 302.6583 -16686.4922 -13477.3770 299.8303 -183.0771 -77.3472 54747.3070 0.5391 0.9695
TCL: Exiting due to exit command.
