Info: SIMULATION PARAMETERS:
Info: TIMESTEP               2
Info: NUMBER OF STEPS        0
Info: STEPS PER CYCLE        10
Info: PERIODIC CELL BASIS 1  35.89 0 0
Info: PERIODIC CELL BASIS 2  0 35.779 0
Info: PERIODIC CELL BASIS 3  0 0 34.954
Info: PERIODIC CELL CENTER   0 0 0
Info: WRAPPING WATERS AROUND PERIODIC BOUNDARIES ON OUTPUT.
Info: WRAPPING ALL CLUSTERS AROUND PERIODIC BOUNDARIES ON OUTPUT.
Info: FIRST LDB TIMESTEP     50
Info: LAST LDB TIMESTEP     -1
Info: HOM BACKGROUND SCALING 1
Info: PME BACKGROUND SCALING 1
Info: MIN ATOMS PER PATCH    40
Info: EMPTY PATCH LOAD       40 ATOMS
Info: INITIAL TEMPERATURE    300
Info: CENTER OF MASS MOVING INITIALLY? NO
Info: DIELECTRIC             1
Info: EXCLUDE                SCALED ONE-FOUR
Info: 1-4 ELECTROSTATICS SCALED BY 0.833333
Info: MODIFIED 1-4 VDW PARAMETERS WILL BE USED
Info: DCD FILENAME           mobley_1636752_equil.dcd
Info: DCD FREQUENCY          100000
Info: DCD FIRST STEP         100000
Info: DCD FILE WILL CONTAIN UNIT CELL DATA
Info: XST FILENAME           mobley_1636752_equil.xst
Info: XST FREQUENCY          100000
Info: NO VELOCITY DCD OUTPUT
Info: NO FORCE DCD OUTPUT
Info: OUTPUT FILENAME        mobley_1636752_equil
Info: BINARY OUTPUT FILES WILL BE USED
Info: RESTART FILENAME       mobley_1636752_equil.restart
Info: RESTART FREQUENCY      100000
Info: BINARY RESTART FILES WILL BE USED
Info: CUTOFF                 9
Info: PAIRLIST DISTANCE      11
Info: PAIRLIST SHRINK RATE   0.01
Info: PAIRLIST GROW RATE     0.01
Info: PAIRLIST TRIGGER       0.3
Info: PAIRLISTS PER CYCLE    2
Info: PAIRLISTS ENABLED
Info: MARGIN                 8
Info: HYDROGEN GROUP CUTOFF  2.5
Info: PATCH DIMENSION        21.5
Info: ENERGY OUTPUT STEPS    100000
Info: ENERGY EVALUATION STEPS    100000
Info: OUTPUT ENERGY PRECISION 4
Info: CROSSTERM ENERGY INCLUDED IN DIHEDRAL
Info: TIMING OUTPUT STEPS    1000000
Info: PRESSURE OUTPUT STEPS  100000
Info: FIXED ATOMS ACTIVE
Info: LANGEVIN DYNAMICS ACTIVE
Info: LANGEVIN TEMPERATURE   30
Info: LANGEVIN USING BBK INTEGRATOR
Info: LANGEVIN DAMPING COEFFICIENT IS 1 INVERSE PS
Info: LANGEVIN DYNAMICS APPLIED TO HYDROGENS
Info: LANGEVIN PISTON PRESSURE CONTROL ACTIVE
Info:        TARGET PRESSURE IS 1.01325 BAR
Info:     OSCILLATION PERIOD IS 50 FS
Info:             DECAY TIME IS 25 FS
Info:     PISTON TEMPERATURE IS 300 K
Info:       PRESSURE CONTROL IS GROUP-BASED
Info:    INITIAL STRAIN RATE IS 0 0 0
Info:       CELL FLUCTUATION IS ISOTROPIC
Info: PARTICLE MESH EWALD (PME) ACTIVE
Info: PME TOLERANCE               1e-06
Info: PME EWALD COEFFICIENT       0.348832
Info: PME INTERPOLATION ORDER     4
Info: PME GRID DIMENSIONS         36 36 36
Info: PME MAXIMUM GRID SPACING    1
Info: FULL ELECTROSTATIC EVALUATION FREQUENCY      2
Info: USING VERLET I (r-RESPA) MTS SCHEME.
Info: C1 SPLITTING OF LONG RANGE ELECTROSTATICS
Info: PLACING ATOMS IN PATCHES BY HYDROGEN GROUPS
Info: RIGID BONDS TO HYDROGEN : ALL
Info:         ERROR TOLERANCE : 1e-08
Info:          MAX ITERATIONS : 100
Info: RIGID WATER USING SETTLE ALGORITHM
Info: RANDOM NUMBER SEED     1742266574
Info: USE HYDROGEN BONDS?    NO
Info: Using AMBER format force field!
Info: AMBER PARM FILE        mobley_1636752.prmtop
Info: COORDINATE PDB         mobley_1636752.pdb
Info: Exclusions will be read from PARM file!
Info: SCNB (VDW SCALING)     2
Info: USING ARITHMETIC MEAN TO COMBINE L-J SIGMA PARAMETERS
Info: BINARY COORDINATES     mobley_1636752_min.coor
Info: SUMMARY OF PARAMETERS:
Info: 5 BONDS
Info: 3 ANGLES
Info:   3 HARMONIC
Info:   0 COSINE-BASED
Info: 1 DIHEDRAL
Info: 0 IMPROPER
Info: 0 CROSSTERM
Info: 0 VDW
Info: 21 VDW_PAIRS
Info: 0 NBTHOLE_PAIRS
Info: STRUCTURE SUMMARY:
Info: 2943 ATOMS
Info: 2942 BONDS
Info: 7 ANGLES
Info: 3 DIHEDRALS
Info: 0 IMPROPERS
Info: 0 CROSSTERMS
Info: 2952 EXCLUSIONS
Info: 6 FIXED ATOMS
Info: 2941 RIGID BONDS
Info: 4 RIGID BONDS BETWEEN FIXED ATOMS
Info: 5874 DEGREES OF FREEDOM
Info: 981 HYDROGEN GROUPS
Info: 4 ATOMS IN LARGEST HYDROGEN GROUP
Info: 981 MIGRATION GROUPS
Info: 4 ATOMS IN LARGEST MIGRATION GROUP
Info: 2 HYDROGEN GROUPS WITH ALL ATOMS FIXED
Info: TOTAL MASS = 17669.7 amu
Info: TOTAL CHARGE = 9.99756e-05 e
Info: MASS DENSITY = 0.653717 g/cm^3
Info: ATOM DENSITY = 0.065568 atoms/A^3
Info: ADDED 0 IMPLICIT EXCLUSIONS
Info: NONBONDED TABLE R-SQUARED SPACING: 0.0625
Info: NONBONDED TABLE SIZE: 705 POINTS
Info: REMOVING COM VELOCITY -0.194524 -0.0354313 0.014229
TCL: Running for 100000 steps
ETITLE: TS BOND ANGLE DIHED IMPRP ELECT VDW BOUNDARY MISC KINETIC TOTAL TEMP POTENTIAL TOTAL3 TEMPAVG PRESSURE GPRESSURE VOLUME PRESSAVG GPRESSAVG
ENERGY: 0 0.0000 0.0000 0.0000 0.0000 -13777.9711 2457.4665 0.0000 0.0000 1755.4023 -9565.1023 300.7690 -11320.5046 -9564.7639 300.7690 647.2597 684.0272 44884.7219 647.2597 684.0272
ENERGY: 100000 0.0000 0.0000 0.0000 0.0000 -14304.4565 2552.7770 0.0000 0.0000 176.9264 -11574.7531 30.3144 -11751.6795 -11574.4867 30.8381 775.9625 859.4181 28707.2478 4.6060 4.6560
TCL: Running 100000 steps at 60 kelvin.
TCL: Setting parameter langevinTemp to 60
TCL: Running for 100000 steps
ETITLE: TS BOND ANGLE DIHED IMPRP ELECT VDW BOUNDARY MISC KINETIC TOTAL TEMP POTENTIAL TOTAL3 TEMPAVG PRESSURE GPRESSURE VOLUME PRESSAVG GPRESSAVG
ENERGY: 100000 0.0000 0.0000 0.0000 0.0000 -14304.4565 2552.7770 0.0000 0.0000 176.8377 -11574.8418 30.2992 -11751.6795 -11574.5227 30.2992 789.7719 859.2155 28707.2478 789.7719 859.2155
ENERGY: 200000 0.0000 0.0000 0.0000 0.0000 -14091.6333 2426.3859 0.0000 0.0000 353.4147 -11311.8328 60.5538 -11665.2475 -11310.8583 59.8804 127.8331 159.8773 28738.9656 3.7022 3.7733
TCL: Running 100000 steps at 90 kelvin.
TCL: Setting parameter langevinTemp to 90
TCL: Running for 100000 steps
ETITLE: TS BOND ANGLE DIHED IMPRP ELECT VDW BOUNDARY MISC KINETIC TOTAL TEMP POTENTIAL TOTAL3 TEMPAVG PRESSURE GPRESSURE VOLUME PRESSAVG GPRESSAVG
ENERGY: 200000 0.0000 0.0000 0.0000 0.0000 -14091.6333 2426.3859 0.0000 0.0000 353.2434 -11312.0041 60.5244 -11665.2475 -11311.3557 60.5244 101.7970 159.8428 28738.9656 101.7970 159.8428
ENERGY: 300000 0.0000 0.0000 0.0000 0.0000 -14029.3083 2458.4549 0.0000 0.0000 545.1526 -11025.7008 93.4060 -11570.8535 -11023.7083 90.2672 635.9893 713.8038 28745.3206 2.7647 2.8059
TCL: Running 100000 steps at 120 kelvin.
TCL: Setting parameter langevinTemp to 120
TCL: Running for 100000 steps
ETITLE: TS BOND ANGLE DIHED IMPRP ELECT VDW BOUNDARY MISC KINETIC TOTAL TEMP POTENTIAL TOTAL3 TEMPAVG PRESSURE GPRESSURE VOLUME PRESSAVG GPRESSAVG
ENERGY: 300000 0.0000 0.0000 0.0000 0.0000 -14029.3083 2458.4549 0.0000 0.0000 544.8903 -11025.9632 93.3610 -11570.8535 -11025.1313 93.3610 664.3673 713.9545 28745.3206 664.3673 713.9545
ENERGY: 400000 0.0000 0.0000 0.0000 0.0000 -13815.4813 2331.0535 0.0000 0.0000 699.3229 -10785.1049 119.8214 -11484.4278 -10783.9276 119.9149 -79.4930 -31.3004 28896.9053 3.2914 3.3417
TCL: Running 100000 steps at 150 kelvin.
TCL: Setting parameter langevinTemp to 150
TCL: Running for 100000 steps
ETITLE: TS BOND ANGLE DIHED IMPRP ELECT VDW BOUNDARY MISC KINETIC TOTAL TEMP POTENTIAL TOTAL3 TEMPAVG PRESSURE GPRESSURE VOLUME PRESSAVG GPRESSAVG
ENERGY: 400000 0.0000 0.0000 0.0000 0.0000 -13815.4813 2331.0535 0.0000 0.0000 698.9870 -10785.4408 119.7638 -11484.4278 -10784.2776 119.7638 -74.8401 -32.0050 28896.9053 -74.8401 -32.0050
ENERGY: 500000 0.0000 0.0000 0.0000 0.0000 -13573.3746 2304.4933 0.0000 0.0000 885.4407 -10383.4406 151.7106 -11268.8813 -10381.7598 150.0334 292.7323 355.9611 29152.1156 3.7761 3.6980
TCL: Running 100000 steps at 180 kelvin.
TCL: Setting parameter langevinTemp to 180
TCL: Running for 100000 steps
ETITLE: TS BOND ANGLE DIHED IMPRP ELECT VDW BOUNDARY MISC KINETIC TOTAL TEMP POTENTIAL TOTAL3 TEMPAVG PRESSURE GPRESSURE VOLUME PRESSAVG GPRESSAVG
ENERGY: 500000 0.0000 0.0000 0.0000 0.0000 -13573.3746 2304.4933 0.0000 0.0000 885.0050 -10383.8763 151.6359 -11268.8813 -10382.2292 151.6359 314.9780 355.5250 29152.1156 314.9780 355.5250
ENERGY: 600000 0.0000 0.0000 0.0000 0.0000 -13168.5464 2137.3509 0.0000 0.0000 1074.6453 -9956.5502 184.1287 -11031.1955 -9953.0290 179.6684 129.9679 208.0567 28722.8319 3.2963 3.0801
TCL: Running 100000 steps at 210 kelvin.
TCL: Setting parameter langevinTemp to 210
TCL: Running for 100000 steps
ETITLE: TS BOND ANGLE DIHED IMPRP ELECT VDW BOUNDARY MISC KINETIC TOTAL TEMP POTENTIAL TOTAL3 TEMPAVG PRESSURE GPRESSURE VOLUME PRESSAVG GPRESSAVG
ENERGY: 600000 0.0000 0.0000 0.0000 0.0000 -13168.5464 2137.3509 0.0000 0.0000 1074.1144 -9957.0811 184.0378 -11031.1955 -9955.1494 184.0378 138.4083 208.6667 28722.8319 138.4083 208.6667
ENERGY: 700000 0.0000 0.0000 0.0000 0.0000 -12398.2947 1882.6037 0.0000 0.0000 1228.0506 -9287.6404 210.4131 -10515.6910 -9286.4491 210.0750 -17.7004 46.3472 28617.5380 4.6363 4.6237
TCL: Running 100000 steps at 240 kelvin.
TCL: Setting parameter langevinTemp to 240
TCL: Running for 100000 steps
ETITLE: TS BOND ANGLE DIHED IMPRP ELECT VDW BOUNDARY MISC KINETIC TOTAL TEMP POTENTIAL TOTAL3 TEMPAVG PRESSURE GPRESSURE VOLUME PRESSAVG GPRESSAVG
ENERGY: 700000 0.0000 0.0000 0.0000 0.0000 -12398.2947 1882.6037 0.0000 0.0000 1227.4390 -9288.2520 210.3083 -10515.6910 -9285.9773 210.3083 -34.2515 44.4065 28617.5380 -34.2515 44.4065
ENERGY: 800000 0.0000 0.0000 0.0000 0.0000 -11786.6791 1697.8577 0.0000 0.0000 1437.0876 -8651.7338 246.2293 -10088.8215 -8646.1677 239.6217 -107.8742 28.9557 28977.9986 4.0833 4.0926
TCL: Running 100000 steps at 270 kelvin.
TCL: Setting parameter langevinTemp to 270
TCL: Running for 100000 steps
ETITLE: TS BOND ANGLE DIHED IMPRP ELECT VDW BOUNDARY MISC KINETIC TOTAL TEMP POTENTIAL TOTAL3 TEMPAVG PRESSURE GPRESSURE VOLUME PRESSAVG GPRESSAVG
ENERGY: 800000 0.0000 0.0000 0.0000 0.0000 -11786.6791 1697.8577 0.0000 0.0000 1436.4009 -8652.4206 246.1116 -10088.8215 -8649.5890 246.1116 -62.8943 30.2831 28977.9986 -62.8943 30.2831
ENERGY: 900000 0.0000 0.0000 0.0000 0.0000 -11281.0713 1533.1610 0.0000 0.0000 1580.6587 -8167.2515 270.8286 -9747.9102 -8164.2586 269.4890 -288.6472 -254.7303 29216.8790 4.2956 4.2283
TCL: Running 1000000 steps at 300 kelvin.
TCL: Setting parameter langevinTemp to 300
TCL: Running for 1000000 steps
ETITLE: TS BOND ANGLE DIHED IMPRP ELECT VDW BOUNDARY MISC KINETIC TOTAL TEMP POTENTIAL TOTAL3 TEMPAVG PRESSURE GPRESSURE VOLUME PRESSAVG GPRESSAVG
ENERGY: 900000 0.0000 0.0000 0.0000 0.0000 -11281.0713 1533.1610 0.0000 0.0000 1579.8761 -8168.0341 270.6945 -9747.9102 -8165.5646 270.6945 -351.9950 -252.6976 29216.8790 -351.9950 -252.6976
ENERGY: 1100000 0.0000 0.0000 0.0000 0.0000 -10616.8491 1362.9773 0.0000 0.0000 1772.7644 -7481.1074 303.7438 -9253.8717 -7477.2001 300.1633 -505.4356 -435.6791 30439.4439 2.9506 3.0985
ENERGY: 1300000 0.0000 0.0000 0.0000 0.0000 -10635.9672 1360.8568 0.0000 0.0000 1721.8430 -7553.2674 295.0190 -9275.1104 -7547.2709 300.4885 -548.7949 -414.7074 30397.1997 4.6779 4.5680
ENERGY: 1500000 0.0000 0.0000 0.0000 0.0000 -10653.5939 1396.1171 0.0000 0.0000 1727.2709 -7530.2059 295.9490 -9257.4768 -7527.8084 300.3178 -330.4632 -223.7262 30539.1435 2.5065 2.4863
ENERGY: 1700000 0.0000 0.0000 0.0000 0.0000 -10718.7503 1421.2994 0.0000 0.0000 1786.3044 -7511.1465 306.0638 -9297.4509 -7509.4972 299.9584 -176.5650 -59.9274 30370.0649 4.0002 4.0141
ENERGY: 1900000 0.0000 0.0000 0.0000 0.0000 -10821.3094 1461.9228 0.0000 0.0000 1798.3474 -7561.0392 308.1272 -9359.3866 -7555.2291 300.2313 225.8005 347.7162 29835.3881 2.9219 2.7568
TCL: Exiting due to exit command.
