Info: SIMULATION PARAMETERS:
Info: TIMESTEP               2
Info: NUMBER OF STEPS        0
Info: STEPS PER CYCLE        10
Info: PERIODIC CELL BASIS 1  30.3691 0 0
Info: PERIODIC CELL BASIS 2  0 31.438 0
Info: PERIODIC CELL BASIS 3  0 0 32.1376
Info: PERIODIC CELL CENTER   0 0 0
Info: WRAPPING WATERS AROUND PERIODIC BOUNDARIES ON OUTPUT.
Info: WRAPPING ALL CLUSTERS AROUND PERIODIC BOUNDARIES ON OUTPUT.
Info: FIRST LDB TIMESTEP     50
Info: LAST LDB TIMESTEP     -1
Info: HOM BACKGROUND SCALING 1
Info: PME BACKGROUND SCALING 1
Info: MIN ATOMS PER PATCH    40
Info: EMPTY PATCH LOAD       40 ATOMS
Info: VELOCITY FILE          mobley_4039055_equil.vel
Info: CENTER OF MASS MOVING INITIALLY? NO
Info: DIELECTRIC             1
Info: EXCLUDE                SCALED ONE-FOUR
Info: 1-4 ELECTROSTATICS SCALED BY 0.833333
Info: MODIFIED 1-4 VDW PARAMETERS WILL BE USED
Info: DCD FILENAME           mobley_4039055_prod.dcd
Info: DCD FREQUENCY          100000
Info: DCD FIRST STEP         100000
Info: DCD FILE WILL CONTAIN UNIT CELL DATA
Info: XST FILENAME           mobley_4039055_prod.xst
Info: XST FREQUENCY          100000
Info: NO VELOCITY DCD OUTPUT
Info: NO FORCE DCD OUTPUT
Info: OUTPUT FILENAME        mobley_4039055_prod
Info: BINARY OUTPUT FILES WILL BE USED
Info: RESTART FILENAME       mobley_4039055_prod.restart
Info: RESTART FREQUENCY      100000
Info: BINARY RESTART FILES WILL BE USED
Info: CUTOFF                 9
Info: PAIRLIST DISTANCE      11
Info: PAIRLIST SHRINK RATE   0.01
Info: PAIRLIST GROW RATE     0.01
Info: PAIRLIST TRIGGER       0.3
Info: PAIRLISTS PER CYCLE    2
Info: PAIRLISTS ENABLED
Info: MARGIN                 2
Info: HYDROGEN GROUP CUTOFF  2.5
Info: PATCH DIMENSION        15.5
Info: ENERGY OUTPUT STEPS    100000
Info: ENERGY EVALUATION STEPS    100000
Info: OUTPUT ENERGY PRECISION 4
Info: CROSSTERM ENERGY INCLUDED IN DIHEDRAL
Info: TIMING OUTPUT STEPS    1000000
Info: PRESSURE OUTPUT STEPS  100000
Info: ALCHEMICAL FEP ON
Info: FEP CURRENT LAMBDA VALUE     0
Info: FEP COMPARISON LAMBDA VALUE  0.05
Info: FEP INTRA-ALCHEMICAL NON-BONDED INTERACTIONS WILL BE RETAINED
Info: FEP INTRA-ALCHEMICAL BONDED INTERACTIONS WILL BE RETAINED
Info: FEP VDW SHIFTING COEFFICIENT 5
Info: FEP ELEC. ACTIVE FOR ANNIHILATED PARTICLES BETWEEN LAMBDA = 0 AND LAMBDA = 0.5
Info: FEP ELEC. ACTIVE FOR EXNIHILATED PARTICLES BETWEEN LAMBDA = 0.5 AND LAMBDA = 1
Info: FEP VDW ACTIVE FOR ANNIHILATED PARTICLES BETWEEN LAMBDA = 0 AND LAMBDA = 1
Info: FEP VDW ACTIVE FOR EXNIHILATED PARTICLES BETWEEN LAMBDA = 0 AND LAMBDA = 1
Info: FEP BOND ACTIVE FOR ANNIHILATED PARTICLES BETWEEN LAMBDA = 1 AND LAMBDA = 1
Info: FEP BOND ACTIVE FOR EXNIHILATED PARTICLES BETWEEN LAMBDA = 0 AND LAMBDA = 0
Info: LANGEVIN DYNAMICS ACTIVE
Info: LANGEVIN TEMPERATURE   300
Info: LANGEVIN USING BBK INTEGRATOR
Info: LANGEVIN DAMPING COEFFICIENT IS 1 INVERSE PS
Info: LANGEVIN DYNAMICS APPLIED TO HYDROGENS
Info: LANGEVIN PISTON PRESSURE CONTROL ACTIVE
Info:        TARGET PRESSURE IS 1.01325 BAR
Info:     OSCILLATION PERIOD IS 50 FS
Info:             DECAY TIME IS 25 FS
Info:     PISTON TEMPERATURE IS 300 K
Info:       PRESSURE CONTROL IS GROUP-BASED
Info:    INITIAL STRAIN RATE IS 0.000227057 0.000227057 0.000227057
Info:       CELL FLUCTUATION IS ISOTROPIC
Info: PARTICLE MESH EWALD (PME) ACTIVE
Info: PME TOLERANCE               1e-06
Info: PME EWALD COEFFICIENT       0.348832
Info: PME INTERPOLATION ORDER     4
Info: PME GRID DIMENSIONS         32 32 36
Info: PME MAXIMUM GRID SPACING    1
Info: PME CALCULATION WILL BE PERFORMED ON GPU
Info: FULL ELECTROSTATIC EVALUATION FREQUENCY      2
Info: USING VERLET I (r-RESPA) MTS SCHEME.
Info: C1 SPLITTING OF LONG RANGE ELECTROSTATICS
Info: PLACING ATOMS IN PATCHES BY HYDROGEN GROUPS
Info: RIGID BONDS TO HYDROGEN : ALL
Info:         ERROR TOLERANCE : 1e-08
Info:          MAX ITERATIONS : 100
Info: RIGID WATER USING SETTLE ALGORITHM
Info: RANDOM NUMBER SEED     1742156960
Info: USE HYDROGEN BONDS?    NO
Info: Using AMBER format force field!
Info: AMBER PARM FILE        mobley_4039055.prmtop
Info: COORDINATE PDB         mobley_4039055.pdb
Info: Exclusions will be read from PARM file!
Info: SCNB (VDW SCALING)     2
Info: USING ARITHMETIC MEAN TO COMBINE L-J SIGMA PARAMETERS
Info: BINARY COORDINATES     mobley_4039055_equil.coor
Info: SUMMARY OF PARAMETERS:
Info: 10 BONDS
Info: 14 ANGLES
Info:   14 HARMONIC
Info:   0 COSINE-BASED
Info: 7 DIHEDRAL
Info: 0 IMPROPER
Info: 0 CROSSTERM
Info: 0 VDW
Info: 36 VDW_PAIRS
Info: 0 NBTHOLE_PAIRS
Info: To read alchdata from file: mobley_4039055.pdb
Info: To read alchflag data from column: 5
Info: STRUCTURE SUMMARY:
Info: 2964 ATOMS
Info: 2964 BONDS
Info: 18 ANGLES
Info: 31 DIHEDRALS
Info: 0 IMPROPERS
Info: 0 CROSSTERMS
Info: 3003 EXCLUSIONS
Info: 2955 RIGID BONDS
Info: ALCH: 0 ATOMS TO DISAPPEAR IN FINAL STATE
Info: ALCH: 12 ATOMS TO APPEAR IN FINAL STATE
Info: 5937 DEGREES OF FREEDOM
Info: 993 HYDROGEN GROUPS
Info: 3 ATOMS IN LARGEST HYDROGEN GROUP
Info: 993 MIGRATION GROUPS
Info: 3 ATOMS IN LARGEST MIGRATION GROUP
Info: TOTAL MASS = 17918.7 amu
Info: TOTAL CHARGE = 4.19095e-08 e
Info: MASS DENSITY = 0.969763 g/cm^3
Info: ATOM DENSITY = 0.0966 atoms/A^3
Info: ADDED 0 IMPLICIT EXCLUSIONS
Info: NONBONDED TABLE R-SQUARED SPACING: 0.0625
Info: NONBONDED TABLE SIZE: 705 POINTS
Info: REMOVING COM VELOCITY -0.079112 0.0829097 -0.07326
Info: Use 3D box decompostion in PME FFT.
Info: Updated CUDA force table with 4096 elements.
Info: Updated CUDA LJ table with 8 x 8 elements.
Info: Found 14 unique exclusion lists needing 24 bytes
TCL: Running for 1500000 steps
ETITLE: TS BOND ANGLE DIHED IMPRP ELECT VDW BOUNDARY MISC KINETIC TOTAL TEMP POTENTIAL TOTALAVG TEMPAVG PRESSURE GPRESSURE VOLUME PRESSAVG GPRESSAVG
ENERGY: 0 2.8953 3.0878 12.9891 0.0000 -10875.8069 1383.4103 0.0000 0.0000 1810.0220 -7663.4025 306.8366 -9473.4244 -7663.4025 306.8366 -683.2335 -595.0541 30683.2255 -683.2335 -595.0541
ENERGY: 300000 3.3179 5.2778 14.5316 0.0000 -11052.9692 1503.7712 0.0000 0.0000 1773.2877 -7752.7830 300.6094 -9526.0707 -7706.8358 298.4041 283.5180 346.8743 30285.5727 -249.8081 -189.1157
ENERGY: 600000 4.4589 2.4411 17.6399 0.0000 -10962.6422 1512.6495 0.0000 0.0000 1746.8126 -7678.6403 296.1213 -9425.4529 -7686.4191 298.3942 445.6496 478.0193 30639.1544 -135.7953 -72.4708
ENERGY: 900000 3.4504 2.4028 15.9889 0.0000 -10942.8990 1473.2964 0.0000 0.0000 1714.7540 -7733.0065 290.6867 -9447.7605 -7697.2356 297.5559 110.4617 164.0834 30270.7032 -95.4386 -36.4617
ENERGY: 1200000 4.6444 4.6078 12.8305 0.0000 -10804.1345 1377.0235 0.0000 0.0000 1767.9700 -7637.0583 299.7079 -9405.0283 -7692.4211 296.9853 -385.3219 -346.6162 30077.2921 -100.7119 -45.5562
ENERGY: 1500000 4.4443 3.3574 13.7170 0.0000 -10988.7421 1469.4263 0.0000 0.0000 1760.1381 -7737.6590 298.3802 -9497.7970 -7687.9616 297.6875 -26.1234 3.2328 30112.6334 -24.3725 31.2317
TCL: Running FEP window   2: Lambda1 0.05   Lambda2 0.1    [dLambda 0.05  ]
TCL: Setting parameter firsttimestep to 0
TCL: Setting parameter alchLambda to 0.05
Info: NONBONDED TABLE R-SQUARED SPACING: 0.0625
Info: NONBONDED TABLE SIZE: 705 POINTS
TCL: Setting parameter alchLambda2 to 0.1
Info: NONBONDED TABLE R-SQUARED SPACING: 0.0625
Info: NONBONDED TABLE SIZE: 705 POINTS
TCL: Running for 1500000 steps
ETITLE: TS BOND ANGLE DIHED IMPRP ELECT VDW BOUNDARY MISC KINETIC TOTAL TEMP POTENTIAL TOTALAVG TEMPAVG PRESSURE GPRESSURE VOLUME PRESSAVG GPRESSAVG
ENERGY: 0 4.4443 3.3574 13.7170 0.0000 -10988.7407 1471.0695 0.0000 0.0000 1759.2171 -7736.9354 298.2241 -9496.1524 -7736.9354 298.2241 -79.2332 6.3586 30112.6334 -79.2332 6.3586
ENERGY: 300000 5.3053 1.8024 14.8350 0.0000 -10957.2425 1472.3453 0.0000 0.0000 1771.6708 -7691.2835 300.3353 -9462.9544 -7678.5093 302.6081 -85.2497 -35.9302 30835.7387 52.2872 114.7413
ENERGY: 600000 6.4007 1.7023 16.0600 0.0000 -10921.2769 1481.8234 0.0000 0.0000 1776.8838 -7638.4067 301.2190 -9415.2905 -7682.5484 301.7383 439.6065 517.4230 30245.0972 121.5059 190.2331
ENERGY: 900000 2.8099 5.9645 13.9878 0.0000 -10861.5320 1418.9559 0.0000 0.0000 1701.7933 -7718.0206 288.4896 -9419.8139 -7679.6198 301.2435 -581.2541 -560.5156 30836.7792 -89.1099 -18.4551
ENERGY: 1200000 3.9775 6.0792 16.7599 0.0000 -10804.7205 1443.0033 0.0000 0.0000 1771.4241 -7563.4766 300.2935 -9334.9007 -7671.0270 299.8010 433.0586 421.6430 30077.2578 -118.0166 -52.9056
ENERGY: 1500000 2.5240 3.6794 13.9174 0.0000 -11029.4775 1540.0700 0.0000 0.0000 1757.1767 -7712.1100 297.8782 -9469.2867 -7672.8761 299.9179 738.2943 803.0854 30063.0296 -99.0830 -37.1986
TCL: Running FEP window   3: Lambda1 0.1    Lambda2 0.15000000000000002 [dLambda 0.05000000000000002]
TCL: Setting parameter firsttimestep to 0
TCL: Setting parameter alchLambda to 0.1
Info: NONBONDED TABLE R-SQUARED SPACING: 0.0625
Info: NONBONDED TABLE SIZE: 705 POINTS
TCL: Setting parameter alchLambda2 to 0.15000000000000002
Info: NONBONDED TABLE R-SQUARED SPACING: 0.0625
Info: NONBONDED TABLE SIZE: 705 POINTS
TCL: Running for 1500000 steps
ETITLE: TS BOND ANGLE DIHED IMPRP ELECT VDW BOUNDARY MISC KINETIC TOTAL TEMP POTENTIAL TOTALAVG TEMPAVG PRESSURE GPRESSURE VOLUME PRESSAVG GPRESSAVG
ENERGY: 0 2.5240 3.6794 13.9174 0.0000 -11029.4775 1541.4297 0.0000 0.0000 1756.3174 -7711.6095 297.7326 -9467.9269 -7711.6095 297.7326 719.3149 810.0978 30063.0296 719.3149 810.0978
ENERGY: 300000 5.3192 9.8047 19.6527 0.0000 -10927.0191 1466.1899 0.0000 0.0000 1786.5412 -7639.5114 302.8561 -9426.0526 -7681.1073 299.8280 -331.7396 -194.2352 30615.1961 -148.7168 -70.2727
ENERGY: 600000 3.5958 5.6753 15.2979 0.0000 -10742.5409 1343.6361 0.0000 0.0000 1843.1285 -7531.2073 312.4489 -9374.3358 -7666.5920 301.6903 -677.1538 -638.8349 30558.3890 -340.4925 -281.7004
ENERGY: 900000 5.6208 3.9834 16.3635 0.0000 -11030.9976 1493.0616 0.0000 0.0000 1700.3897 -7811.5787 288.2516 -9511.9684 -7687.3064 300.8137 33.8089 94.0686 30191.2314 -228.7905 -170.4284
ENERGY: 1200000 3.8144 6.4052 15.4677 0.0000 -11037.0619 1470.0984 0.0000 0.0000 1717.0398 -7824.2365 291.0742 -9541.2762 -7701.9195 299.3719 9.3817 74.5125 30099.4686 -206.1984 -145.4379
ENERGY: 1500000 2.8215 6.2596 14.1946 0.0000 -10829.5234 1406.5422 0.0000 0.0000 1742.7413 -7656.9642 295.4311 -9399.7055 -7692.3692 299.7864 -296.4578 -221.1738 30713.9982 -170.7896 -109.9666
TCL: Running FEP window   4: Lambda1 0.15000000000000002 Lambda2 0.2    [dLambda 0.04999999999999999]
TCL: Setting parameter firsttimestep to 0
TCL: Setting parameter alchLambda to 0.15000000000000002
Info: NONBONDED TABLE R-SQUARED SPACING: 0.0625
Info: NONBONDED TABLE SIZE: 705 POINTS
TCL: Setting parameter alchLambda2 to 0.2
Info: NONBONDED TABLE R-SQUARED SPACING: 0.0625
Info: NONBONDED TABLE SIZE: 705 POINTS
TCL: Running for 1500000 steps
ETITLE: TS BOND ANGLE DIHED IMPRP ELECT VDW BOUNDARY MISC KINETIC TOTAL TEMP POTENTIAL TOTALAVG TEMPAVG PRESSURE GPRESSURE VOLUME PRESSAVG GPRESSAVG
ENERGY: 0 2.8216 6.2596 14.1946 0.0000 -10829.5224 1406.1464 0.0000 0.0000 1741.8780 -7658.2223 295.2848 -9400.1003 -7658.2223 295.2848 -315.2576 -219.6244 30713.9982 -315.2576 -219.6244
ENERGY: 300000 5.8374 4.4891 15.1565 0.0000 -10913.9142 1480.6171 0.0000 0.0000 1786.9481 -7620.8661 302.9251 -9407.8141 -7649.4079 300.8129 123.0582 192.6708 30582.2828 -222.1980 -158.2645
ENERGY: 600000 2.6400 4.7838 14.4882 0.0000 -10849.7559 1376.2078 0.0000 0.0000 1794.9952 -7656.6410 304.2893 -9451.6362 -7662.5451 300.5973 -650.1827 -579.5076 30687.6056 -314.1378 -244.7976
ENERGY: 900000 1.6949 6.7059 16.0128 0.0000 -11063.1692 1551.2770 0.0000 0.0000 1781.9788 -7705.4998 302.0827 -9487.4786 -7666.9360 300.3980 471.8373 525.8870 30480.0319 -162.7165 -101.6941
ENERGY: 1200000 2.9484 3.7880 16.2364 0.0000 -10933.2566 1491.0417 0.0000 0.0000 1797.2883 -7621.9536 304.6780 -9419.2420 -7660.6608 301.1289 328.9047 365.6857 30470.3965 -35.4696 22.0969
ENERGY: 1500000 1.8109 2.5637 14.4481 0.0000 -10979.1040 1414.9710 0.0000 0.0000 1774.0434 -7771.2669 300.7375 -9545.3102 -7673.0943 301.1752 -691.8082 -704.8092 30617.3727 -89.4806 -34.2881
TCL: Running FEP window   5: Lambda1 0.2    Lambda2 0.25   [dLambda 0.04999999999999999]
TCL: Setting parameter firsttimestep to 0
TCL: Setting parameter alchLambda to 0.2
Info: NONBONDED TABLE R-SQUARED SPACING: 0.0625
Info: NONBONDED TABLE SIZE: 705 POINTS
TCL: Setting parameter alchLambda2 to 0.25
Info: NONBONDED TABLE R-SQUARED SPACING: 0.0625
Info: NONBONDED TABLE SIZE: 705 POINTS
TCL: Running for 1500000 steps
ETITLE: TS BOND ANGLE DIHED IMPRP ELECT VDW BOUNDARY MISC KINETIC TOTAL TEMP POTENTIAL TOTALAVG TEMPAVG PRESSURE GPRESSURE VOLUME PRESSAVG GPRESSAVG
ENERGY: 0 1.8109 2.5637 14.4481 0.0000 -10979.1048 1415.3947 0.0000 0.0000 1773.2029 -7771.6846 300.5950 -9544.8875 -7771.6846 300.5950 -775.7922 -698.2752 30617.3727 -775.7922 -698.2752
ENERGY: 300000 2.7500 3.6510 16.8469 0.0000 -10919.8530 1460.5017 0.0000 0.0000 1744.7739 -7691.3296 295.7757 -9436.1034 -7686.9851 301.4969 -179.6798 -122.2585 30497.5123 -248.2899 -164.0205
ENERGY: 600000 3.6390 3.5104 15.3738 0.0000 -10948.1740 1469.4742 0.0000 0.0000 1732.2018 -7723.9748 293.6445 -9456.1766 -7671.5418 298.3475 16.3145 98.6495 30728.4737 -51.1686 20.2762
ENERGY: 900000 7.6684 1.4848 14.9692 0.0000 -10974.7921 1465.8771 0.0000 0.0000 1778.1326 -7706.6601 301.4307 -9484.7926 -7671.9504 298.9759 114.6083 171.8234 30417.1149 -24.3837 38.6294
ENERGY: 1200000 3.7218 3.8344 15.7728 0.0000 -11012.1557 1561.9396 0.0000 0.0000 1817.9814 -7608.9056 308.1859 -9426.8870 -7665.0529 299.7255 871.8703 884.8355 30845.6442 49.1465 107.0332
ENERGY: 1500000 3.0498 3.3636 18.1817 0.0000 -10837.9233 1348.3538 0.0000 0.0000 1864.9594 -7600.0149 316.1497 -9464.9743 -7672.1384 300.3561 -964.0557 -898.9409 30706.8275 5.7097 69.0672
TCL: Running FEP window   6: Lambda1 0.25   Lambda2 0.3    [dLambda 0.04999999999999999]
TCL: Setting parameter firsttimestep to 0
TCL: Setting parameter alchLambda to 0.25
Info: NONBONDED TABLE R-SQUARED SPACING: 0.0625
Info: NONBONDED TABLE SIZE: 705 POINTS
TCL: Setting parameter alchLambda2 to 0.3
Info: NONBONDED TABLE R-SQUARED SPACING: 0.0625
Info: NONBONDED TABLE SIZE: 705 POINTS
TCL: Running for 1500000 steps
ETITLE: TS BOND ANGLE DIHED IMPRP ELECT VDW BOUNDARY MISC KINETIC TOTAL TEMP POTENTIAL TOTALAVG TEMPAVG PRESSURE GPRESSURE VOLUME PRESSAVG GPRESSAVG
ENERGY: 0 3.0498 3.3636 18.1817 0.0000 -10837.9238 1348.7815 0.0000 0.0000 1864.0710 -7600.4761 315.9991 -9464.5472 -7600.4761 315.9991 -991.4113 -894.2708 30706.8275 -991.4113 -894.2708
ENERGY: 300000 4.1161 5.2630 13.5274 0.0000 -10892.1116 1463.5481 0.0000 0.0000 1700.3278 -7705.3292 288.2412 -9405.6570 -7611.9523 302.4414 241.2505 343.6941 30490.2426 -259.5611 -178.9948
ENERGY: 600000 2.5774 3.3488 14.0656 0.0000 -11002.0466 1473.2285 0.0000 0.0000 1723.7165 -7785.1098 292.2060 -9508.8263 -7654.1510 301.0496 -97.5145 -44.4711 30608.0933 -189.2252 -114.0330
ENERGY: 900000 7.0790 4.0175 13.0740 0.0000 -11033.0063 1478.1085 0.0000 0.0000 1778.3570 -7752.3704 301.4687 -9530.7274 -7655.9348 300.6991 43.9544 20.8215 30673.6694 -161.7194 -94.7067
ENERGY: 1200000 3.6218 5.0417 15.7735 0.0000 -10861.3918 1431.4346 0.0000 0.0000 1769.6393 -7635.8809 299.9909 -9405.5202 -7655.4994 300.4753 142.3537 283.4068 30099.3159 -133.5981 -59.5596
ENERGY: 1500000 3.2142 5.9634 18.0996 0.0000 -10887.2649 1424.9975 0.0000 0.0000 1776.2505 -7658.7397 301.1117 -9434.9902 -7646.6825 301.0192 -346.2336 -278.3998 30864.1140 -245.8143 -169.0143
TCL: Running FEP window   7: Lambda1 0.3    Lambda2 0.35   [dLambda 0.04999999999999999]
TCL: Setting parameter firsttimestep to 0
TCL: Setting parameter alchLambda to 0.3
Info: NONBONDED TABLE R-SQUARED SPACING: 0.0625
Info: NONBONDED TABLE SIZE: 705 POINTS
TCL: Setting parameter alchLambda2 to 0.35
Info: NONBONDED TABLE R-SQUARED SPACING: 0.0625
Info: NONBONDED TABLE SIZE: 705 POINTS
TCL: Running for 1500000 steps
ETITLE: TS BOND ANGLE DIHED IMPRP ELECT VDW BOUNDARY MISC KINETIC TOTAL TEMP POTENTIAL TOTALAVG TEMPAVG PRESSURE GPRESSURE VOLUME PRESSAVG GPRESSAVG
ENERGY: 0 3.2142 5.9634 18.0996 0.0000 -10887.2654 1424.8714 0.0000 0.0000 1775.3508 -7659.7660 300.9591 -9435.1169 -7659.7660 300.9591 -370.6493 -277.8737 30864.1140 -370.6493 -277.8737
ENERGY: 300000 2.2003 3.7445 12.9067 0.0000 -10927.3450 1470.6631 0.0000 0.0000 1749.9399 -7687.8905 296.6514 -9437.8304 -7668.3588 299.8886 229.9444 356.5726 30267.0243 27.6387 59.1812
ENERGY: 600000 4.2966 6.7335 17.0360 0.0000 -10877.8849 1441.4006 0.0000 0.0000 1748.3998 -7660.0183 296.3904 -9408.4182 -7654.9659 301.5271 -145.2793 -127.3930 30832.6849 -67.0957 -26.3286
ENERGY: 900000 3.3470 2.4442 15.6756 0.0000 -10990.7690 1512.1877 0.0000 0.0000 1845.7443 -7611.3702 312.8923 -9457.1144 -7654.0296 302.7776 487.4062 585.8246 30344.9045 35.5672 83.0329
ENERGY: 1200000 1.9576 6.6553 16.0077 0.0000 -10922.1405 1476.8950 0.0000 0.0000 1751.3463 -7669.2785 296.8899 -9420.6248 -7643.7187 302.8061 46.1000 127.8641 30514.5509 30.3139 74.7574
ENERGY: 1500000 3.8466 5.7537 14.9229 0.0000 -11045.2226 1531.5515 0.0000 0.0000 1804.9722 -7684.1758 305.9806 -9489.1480 -7647.3886 302.8562 370.8848 489.7630 30432.8050 61.5444 113.6921
TCL: Running FEP window   8: Lambda1 0.35   Lambda2 0.39999999999999997 [dLambda 0.04999999999999999]
TCL: Setting parameter firsttimestep to 0
TCL: Setting parameter alchLambda to 0.35
Info: NONBONDED TABLE R-SQUARED SPACING: 0.0625
Info: NONBONDED TABLE SIZE: 705 POINTS
TCL: Setting parameter alchLambda2 to 0.39999999999999997
Info: NONBONDED TABLE R-SQUARED SPACING: 0.0625
Info: NONBONDED TABLE SIZE: 705 POINTS
TCL: Running for 1500000 steps
ETITLE: TS BOND ANGLE DIHED IMPRP ELECT VDW BOUNDARY MISC KINETIC TOTAL TEMP POTENTIAL TOTALAVG TEMPAVG PRESSURE GPRESSURE VOLUME PRESSAVG GPRESSAVG
ENERGY: 0 3.8466 5.7537 14.9229 0.0000 -11045.2211 1531.5514 0.0000 0.0000 1804.0905 -7685.0561 305.8311 -9489.1465 -7685.0561 305.8311 397.2680 494.6896 30432.8050 397.2680 494.6896
ENERGY: 300000 2.5106 4.9940 14.3688 0.0000 -10863.7868 1389.7545 0.0000 0.0000 1751.2278 -7700.9311 296.8698 -9452.1589 -7675.2748 302.3983 -472.4947 -459.4240 30530.6297 248.4545 291.7332
ENERGY: 600000 7.5863 5.1525 14.3929 0.0000 -11094.9778 1525.5613 0.0000 0.0000 1783.7419 -7758.5429 302.3816 -9542.2847 -7703.1381 302.3625 506.8263 554.7003 30313.1665 180.7889 240.2303
ENERGY: 900000 5.4576 4.3546 12.5744 0.0000 -10853.5208 1398.8025 0.0000 0.0000 1740.5211 -7691.8106 295.0548 -9432.3317 -7690.7335 301.3812 -629.7768 -525.4670 30994.6251 28.0652 93.8614
ENERGY: 1200000 3.9066 1.7954 13.5184 0.0000 -10934.3101 1452.5452 0.0000 0.0000 1797.5200 -7665.0245 304.7173 -9462.5445 -7697.6616 300.8020 -7.3252 112.3112 30318.3169 8.0143 83.2662
ENERGY: 1500000 1.8741 3.3479 16.2592 0.0000 -10838.1237 1395.3717 0.0000 0.0000 1801.8647 -7619.4060 305.4538 -9421.2708 -7681.0548 302.1631 -481.2930 -488.7007 30647.7835 -88.2084 -26.5564
TCL: Running FEP window   9: Lambda1 0.39999999999999997 Lambda2 0.44999999999999996 [dLambda 0.04999999999999999]
TCL: Setting parameter firsttimestep to 0
TCL: Setting parameter alchLambda to 0.39999999999999997
Info: NONBONDED TABLE R-SQUARED SPACING: 0.0625
Info: NONBONDED TABLE SIZE: 705 POINTS
TCL: Setting parameter alchLambda2 to 0.44999999999999996
Info: NONBONDED TABLE R-SQUARED SPACING: 0.0625
Info: NONBONDED TABLE SIZE: 705 POINTS
TCL: Running for 1500000 steps
ETITLE: TS BOND ANGLE DIHED IMPRP ELECT VDW BOUNDARY MISC KINETIC TOTAL TEMP POTENTIAL TOTALAVG TEMPAVG PRESSURE GPRESSURE VOLUME PRESSAVG GPRESSAVG
ENERGY: 0 1.8741 3.3479 16.2592 0.0000 -10838.1227 1395.2019 0.0000 0.0000 1801.0323 -7620.4072 305.3127 -9421.4395 -7620.4072 305.3127 -559.7413 -484.7981 30647.7835 -559.7413 -484.7981
ENERGY: 300000 5.1776 3.2205 12.5218 0.0000 -10953.5526 1486.7925 0.0000 0.0000 1817.8269 -7628.0133 308.1597 -9445.8403 -7625.5066 303.6432 480.0664 499.2647 30316.9985 -120.0428 -43.0226
ENERGY: 600000 3.2865 6.2556 15.0561 0.0000 -11026.5057 1525.7850 0.0000 0.0000 1812.8112 -7663.3113 307.3094 -9476.1225 -7639.0544 302.4461 513.8499 561.6927 30230.9939 -16.1249 65.1714
ENERGY: 900000 2.7399 5.0898 15.1350 0.0000 -10956.5367 1487.7876 0.0000 0.0000 1740.9796 -7704.8048 295.1325 -9445.7844 -7651.4167 300.7518 85.8974 210.6163 30242.2714 -85.6779 -11.4523
ENERGY: 1200000 6.2058 4.0930 13.4809 0.0000 -10994.5093 1509.1667 0.0000 0.0000 1724.7831 -7736.7799 292.3868 -9461.5629 -7657.7485 300.8828 778.7103 857.9509 29887.4281 -88.3560 -29.4790
ENERGY: 1500000 1.1329 3.5459 13.3905 0.0000 -11009.8627 1517.3206 0.0000 0.0000 1764.2981 -7710.1747 299.0855 -9474.4728 -7662.2705 300.4821 535.1183 530.0853 30142.5742 -70.6853 -14.3866
TCL: Running FEP window  10: Lambda1 0.44999999999999996 Lambda2 0.49999999999999994 [dLambda 0.04999999999999999]
TCL: Setting parameter firsttimestep to 0
TCL: Setting parameter alchLambda to 0.44999999999999996
Info: NONBONDED TABLE R-SQUARED SPACING: 0.0625
Info: NONBONDED TABLE SIZE: 705 POINTS
TCL: Setting parameter alchLambda2 to 0.49999999999999994
Info: NONBONDED TABLE R-SQUARED SPACING: 0.0625
Info: NONBONDED TABLE SIZE: 705 POINTS
TCL: Running for 1500000 steps
ETITLE: TS BOND ANGLE DIHED IMPRP ELECT VDW BOUNDARY MISC KINETIC TOTAL TEMP POTENTIAL TOTALAVG TEMPAVG PRESSURE GPRESSURE VOLUME PRESSAVG GPRESSAVG
ENERGY: 0 1.1329 3.5459 13.3905 0.0000 -11009.8630 1517.0177 0.0000 0.0000 1763.4249 -7711.3511 298.9374 -9474.7760 -7711.3511 298.9374 449.8500 533.0708 30142.5742 449.8500 533.0708
ENERGY: 300000 1.6500 1.1664 15.3628 0.0000 -11058.2009 1510.8722 0.0000 0.0000 1786.3044 -7742.8450 302.8160 -9529.1494 -7712.4492 301.0161 457.5667 518.4115 30145.7932 50.9142 123.0859
ENERGY: 600000 8.0917 2.6216 14.8945 0.0000 -10910.4915 1375.1751 0.0000 0.0000 1753.0186 -7756.6901 297.1733 -9509.7086 -7682.4756 300.9078 -511.5039 -476.1326 30238.5209 -172.1630 -115.8333
ENERGY: 900000 3.3559 6.4349 14.8606 0.0000 -10851.8676 1430.6968 0.0000 0.0000 1751.2539 -7645.2656 296.8742 -9396.5195 -7668.5340 300.8030 -375.0656 -268.6127 30866.5983 -198.1552 -124.2067
ENERGY: 1200000 2.4481 2.2622 15.5950 0.0000 -10935.3137 1406.4094 0.0000 0.0000 1787.0843 -7721.5147 302.9482 -9508.5990 -7673.3640 300.6959 -590.3264 -556.0893 30522.4492 -203.1054 -138.5797
ENERGY: 1500000 4.2024 3.5787 13.7482 0.0000 -10819.5562 1402.7261 0.0000 0.0000 1778.2685 -7617.0323 301.4537 -9395.3007 -7673.9426 300.5628 -212.8558 -215.9618 30949.2515 -180.1339 -115.6198
TCL: Running FEP window  11: Lambda1 0.49999999999999994 Lambda2 0.5499999999999999 [dLambda 0.04999999999999999]
TCL: Setting parameter firsttimestep to 0
TCL: Setting parameter alchLambda to 0.49999999999999994
Info: NONBONDED TABLE R-SQUARED SPACING: 0.0625
Info: NONBONDED TABLE SIZE: 705 POINTS
TCL: Setting parameter alchLambda2 to 0.5499999999999999
Info: NONBONDED TABLE R-SQUARED SPACING: 0.0625
Info: NONBONDED TABLE SIZE: 705 POINTS
TCL: Running for 1500000 steps
ETITLE: TS BOND ANGLE DIHED IMPRP ELECT VDW BOUNDARY MISC KINETIC TOTAL TEMP POTENTIAL TOTALAVG TEMPAVG PRESSURE GPRESSURE VOLUME PRESSAVG GPRESSAVG
ENERGY: 0 4.2024 3.5787 13.7482 0.0000 -10819.5575 1403.1606 0.0000 0.0000 1777.3698 -7617.4977 301.3014 -9394.8675 -7617.4977 301.3014 -283.4804 -206.6332 30949.2515 -283.4804 -206.6332
ENERGY: 300000 8.4640 5.6270 15.0907 0.0000 -10829.9899 1321.7997 0.0000 0.0000 1803.2128 -7675.7958 305.6823 -9479.0085 -7683.0304 300.9899 -1520.6992 -1465.8524 30744.7158 -158.1425 -93.3304
ENERGY: 600000 3.8129 3.1713 16.5598 0.0000 -11105.5916 1565.3843 0.0000 0.0000 1750.8669 -7765.7964 296.8086 -9516.6634 -7689.5765 300.6159 1155.8744 1190.9437 29692.9378 -38.6392 24.7684
ENERGY: 900000 5.7430 2.6742 14.8285 0.0000 -10753.0037 1374.1129 0.0000 0.0000 1745.0240 -7610.6211 295.8181 -9355.6451 -7682.3855 299.8995 -342.4790 -300.8430 30593.4518 -53.0963 0.6924
ENERGY: 1200000 4.9216 4.1304 13.9812 0.0000 -10830.3394 1389.9562 0.0000 0.0000 1718.7725 -7698.5775 291.3679 -9417.3500 -7688.7442 298.8999 -781.5023 -703.8744 31005.7855 43.5724 99.1784
ENERGY: 1500000 2.4514 13.6839 15.1509 0.0000 -10841.3558 1399.2158 0.0000 0.0000 1750.5115 -7660.3424 296.7483 -9410.8539 -7684.9449 298.5673 -359.7871 -324.7868 30633.9745 -47.7614 2.3689
TCL: Running FEP window  12: Lambda1 0.5499999999999999 Lambda2 0.6    [dLambda 0.050000000000000044]
TCL: Setting parameter firsttimestep to 0
TCL: Setting parameter alchLambda to 0.5499999999999999
Info: NONBONDED TABLE R-SQUARED SPACING: 0.0625
Info: NONBONDED TABLE SIZE: 705 POINTS
TCL: Setting parameter alchLambda2 to 0.6
Info: NONBONDED TABLE R-SQUARED SPACING: 0.0625
Info: NONBONDED TABLE SIZE: 705 POINTS
TCL: Running for 1500000 steps
ETITLE: TS BOND ANGLE DIHED IMPRP ELECT VDW BOUNDARY MISC KINETIC TOTAL TEMP POTENTIAL TOTALAVG TEMPAVG PRESSURE GPRESSURE VOLUME PRESSAVG GPRESSAVG
ENERGY: 0 2.4514 13.6839 15.1509 0.0000 -10841.3643 1398.7296 0.0000 0.0000 1749.6465 -7661.7022 296.6017 -9411.3486 -7661.7022 296.6017 -411.5490 -322.7043 30633.9745 -411.5490 -322.7043
ENERGY: 300000 5.3472 2.8026 16.4032 0.0000 -10855.9100 1408.3509 0.0000 0.0000 1783.5995 -7639.4067 302.3575 -9423.0061 -7681.4506 298.5503 -386.9532 -289.6285 30796.1197 -3.2659 83.4784
ENERGY: 600000 3.3360 4.4304 18.2169 0.0000 -10837.5509 1388.4847 0.0000 0.0000 1774.6808 -7648.4020 300.8455 -9423.0829 -7684.3808 299.4187 -249.9956 -139.0286 29953.6826 24.5483 106.8915
ENERGY: 900000 5.0981 6.0319 13.4198 0.0000 -10892.6717 1416.1366 0.0000 0.0000 1778.8502 -7673.1351 301.5523 -9451.9853 -7673.4817 300.6108 -324.7668 -298.4811 30689.5937 -73.3835 -1.2152
ENERGY: 1200000 3.3001 2.8829 12.9703 0.0000 -10922.5805 1422.3982 0.0000 0.0000 1757.2208 -7723.8082 297.8857 -9481.0291 -7677.8131 299.4344 -157.3358 -116.1701 30552.3603 -67.2461 2.5127
ENERGY: 1500000 9.9661 6.5817 14.4626 0.0000 -10916.9826 1424.2066 0.0000 0.0000 1774.9316 -7686.8340 300.8881 -9461.7656 -7675.4938 300.4739 -419.1845 -315.5540 30897.6792 -45.3892 21.3533
TCL: Running FEP window  13: Lambda1 0.6    Lambda2 0.65   [dLambda 0.050000000000000044]
TCL: Setting parameter firsttimestep to 0
TCL: Setting parameter alchLambda to 0.6
Info: NONBONDED TABLE R-SQUARED SPACING: 0.0625
Info: NONBONDED TABLE SIZE: 705 POINTS
TCL: Setting parameter alchLambda2 to 0.65
Info: NONBONDED TABLE R-SQUARED SPACING: 0.0625
Info: NONBONDED TABLE SIZE: 705 POINTS
TCL: Running for 1500000 steps
ETITLE: TS BOND ANGLE DIHED IMPRP ELECT VDW BOUNDARY MISC KINETIC TOTAL TEMP POTENTIAL TOTALAVG TEMPAVG PRESSURE GPRESSURE VOLUME PRESSAVG GPRESSAVG
ENERGY: 0 9.9661 6.5817 14.4626 0.0000 -10917.6858 1424.3529 0.0000 0.0000 1774.0770 -7688.2455 300.7432 -9462.3225 -7688.2455 300.7432 -385.6150 -309.8254 30897.6792 -385.6150 -309.8254
ENERGY: 300000 6.1064 3.2611 16.3912 0.0000 -10829.0798 1456.5733 0.0000 0.0000 1790.1174 -7556.6305 303.4624 -9346.7479 -7578.3292 305.1688 527.3917 616.7325 30460.2238 127.2900 201.9673
ENERGY: 600000 3.4756 3.6973 14.7826 0.0000 -10830.1816 1407.6967 0.0000 0.0000 1749.2480 -7651.2814 296.5342 -9400.5294 -7604.7351 301.6648 -1.9469 97.4051 30169.4642 165.9471 235.4787
ENERGY: 900000 3.3330 3.3158 14.3978 0.0000 -10974.3798 1518.0421 0.0000 0.0000 1728.8162 -7706.4749 293.0705 -9435.2911 -7630.7319 300.3100 465.1000 553.2527 30823.1058 257.1299 328.1359
ENERGY: 1200000 8.6101 3.8360 14.2093 0.0000 -10866.5888 1418.6761 0.0000 0.0000 1754.9828 -7666.2744 297.5063 -9421.2573 -7632.1869 300.4528 -375.8967 -266.3566 31202.0076 158.3180 241.0197
ENERGY: 1500000 3.4075 1.5614 15.7361 0.0000 -10955.8809 1453.3411 0.0000 0.0000 1794.3680 -7687.4668 304.1829 -9481.8348 -7648.4908 300.0038 -244.8822 -199.9606 30887.7457 103.3523 181.6257
TCL: Running FEP window  14: Lambda1 0.65   Lambda2 0.7000000000000001 [dLambda 0.050000000000000044]
TCL: Setting parameter firsttimestep to 0
TCL: Setting parameter alchLambda to 0.65
Info: NONBONDED TABLE R-SQUARED SPACING: 0.0625
Info: NONBONDED TABLE SIZE: 705 POINTS
TCL: Setting parameter alchLambda2 to 0.7000000000000001
Info: NONBONDED TABLE R-SQUARED SPACING: 0.0625
Info: NONBONDED TABLE SIZE: 705 POINTS
TCL: Running for 1500000 steps
ETITLE: TS BOND ANGLE DIHED IMPRP ELECT VDW BOUNDARY MISC KINETIC TOTAL TEMP POTENTIAL TOTALAVG TEMPAVG PRESSURE GPRESSURE VOLUME PRESSAVG GPRESSAVG
ENERGY: 0 3.4075 1.5614 15.7361 0.0000 -10957.5287 1453.5299 0.0000 0.0000 1793.5025 -7689.7911 304.0362 -9483.2937 -7689.7911 304.0362 -277.8084 -193.5335 30887.7457 -277.8084 -193.5335
ENERGY: 300000 2.2708 2.3732 16.3850 0.0000 -10765.7171 1344.5371 0.0000 0.0000 1836.6573 -7563.4937 311.3519 -9400.1510 -7623.8414 304.9294 -677.9727 -710.3519 30880.8064 -107.2489 -79.2572
ENERGY: 600000 2.4892 4.9979 14.0949 0.0000 -10962.0321 1438.6525 0.0000 0.0000 1753.0322 -7748.7653 297.1757 -9501.7975 -7666.7055 300.8868 96.5211 138.6716 29993.1298 -50.8785 -15.4513
ENERGY: 900000 2.8329 3.4015 13.4880 0.0000 -10881.7837 1422.2294 0.0000 0.0000 1788.7643 -7651.0675 303.2330 -9439.8319 -7662.8311 301.9395 -94.3363 -38.0597 30211.4060 -46.7323 2.3193
ENERGY: 1200000 5.2795 4.6011 17.1469 0.0000 -10881.3583 1457.4582 0.0000 0.0000 1788.8751 -7607.9975 303.2518 -9396.8726 -7664.0448 301.0861 277.2964 363.2874 30268.8884 32.4388 88.5872
ENERGY: 1500000 3.8726 5.6172 16.0503 0.0000 -10867.2665 1410.7648 0.0000 0.0000 1763.1251 -7667.8364 298.8866 -9430.9615 -7668.1432 300.5758 -139.0902 -86.4717 30398.5686 15.2345 72.5676
TCL: Running FEP window  15: Lambda1 0.7000000000000001 Lambda2 0.7500000000000001 [dLambda 0.050000000000000044]
TCL: Setting parameter firsttimestep to 0
TCL: Setting parameter alchLambda to 0.7000000000000001
Info: NONBONDED TABLE R-SQUARED SPACING: 0.0625
Info: NONBONDED TABLE SIZE: 705 POINTS
TCL: Setting parameter alchLambda2 to 0.7500000000000001
Info: NONBONDED TABLE R-SQUARED SPACING: 0.0625
Info: NONBONDED TABLE SIZE: 705 POINTS
TCL: Running for 1500000 steps
ETITLE: TS BOND ANGLE DIHED IMPRP ELECT VDW BOUNDARY MISC KINETIC TOTAL TEMP POTENTIAL TOTALAVG TEMPAVG PRESSURE GPRESSURE VOLUME PRESSAVG GPRESSAVG
ENERGY: 0 3.8726 5.6172 16.0503 0.0000 -10868.3531 1410.4862 0.0000 0.0000 1762.2170 -7670.1097 298.7327 -9432.3268 -7670.1097 298.7327 -164.1126 -79.5449 30398.5686 -164.1126 -79.5449
ENERGY: 300000 6.1771 6.7155 15.0275 0.0000 -10794.6807 1349.6900 0.0000 0.0000 1759.8272 -7657.2432 298.3276 -9417.0705 -7705.5678 296.6614 -657.6985 -555.5243 30806.6060 -248.1985 -161.4238
ENERGY: 600000 4.9970 2.4225 15.8069 0.0000 -11128.2861 1539.9946 0.0000 0.0000 1736.9616 -7828.1035 294.4513 -9565.0651 -7714.8780 297.5346 475.8036 563.6650 30292.4019 -265.1775 -190.5208
ENERGY: 900000 6.0132 6.1046 17.3461 0.0000 -10870.3465 1433.3941 0.0000 0.0000 1787.3636 -7620.1249 302.9955 -9407.4885 -7694.4486 298.5699 -339.6477 -198.4239 30849.4556 -240.3885 -157.1871
ENERGY: 1200000 2.3193 3.6543 13.7920 0.0000 -10935.7310 1422.2107 0.0000 0.0000 1774.2769 -7719.4778 300.7771 -9493.7547 -7699.3430 298.1962 -246.8148 -135.6338 30400.8906 -161.5920 -87.6354
ENERGY: 1500000 4.4644 3.0747 14.2038 0.0000 -11078.9383 1516.3661 0.0000 0.0000 1787.8033 -7753.0259 303.0701 -9540.8292 -7692.7895 299.7431 345.4774 395.4436 30460.7837 -143.9675 -66.3329
TCL: Running FEP window  16: Lambda1 0.7500000000000001 Lambda2 0.8000000000000002 [dLambda 0.050000000000000044]
TCL: Setting parameter firsttimestep to 0
TCL: Setting parameter alchLambda to 0.7500000000000001
Info: NONBONDED TABLE R-SQUARED SPACING: 0.0625
Info: NONBONDED TABLE SIZE: 705 POINTS
TCL: Setting parameter alchLambda2 to 0.8000000000000002
Info: NONBONDED TABLE R-SQUARED SPACING: 0.0625
Info: NONBONDED TABLE SIZE: 705 POINTS
TCL: Running for 1500000 steps
ETITLE: TS BOND ANGLE DIHED IMPRP ELECT VDW BOUNDARY MISC KINETIC TOTAL TEMP POTENTIAL TOTALAVG TEMPAVG PRESSURE GPRESSURE VOLUME PRESSAVG GPRESSAVG
ENERGY: 0 4.4644 3.0747 14.2038 0.0000 -11081.3562 1517.5649 0.0000 0.0000 1786.8827 -7755.1656 302.9140 -9542.0483 -7755.1656 302.9140 337.2699 410.7372 30460.7837 337.2699 410.7372
ENERGY: 300000 2.4768 4.3055 16.4356 0.0000 -10941.6440 1472.9921 0.0000 0.0000 1746.2315 -7699.2025 296.0228 -9445.4340 -7674.7540 299.4812 107.8999 178.4232 30706.2724 140.5191 216.9668
ENERGY: 600000 7.7000 15.6656 13.5499 0.0000 -10782.8146 1374.7483 0.0000 0.0000 1728.0214 -7643.1294 292.9358 -9371.1508 -7662.8723 299.4637 -549.6428 -507.1203 30958.1070 -189.1714 -119.5169
ENERGY: 900000 1.8436 4.1760 14.5858 0.0000 -11059.3044 1489.8937 0.0000 0.0000 1777.6477 -7771.1576 301.3485 -9548.8053 -7669.7639 300.9767 -10.5962 59.6583 30624.3929 -196.4591 -134.7229
ENERGY: 1200000 6.4013 4.5976 14.4871 0.0000 -10884.7402 1434.8334 0.0000 0.0000 1772.8055 -7651.6152 300.5277 -9424.4207 -7670.7785 301.6095 121.1589 92.2344 30464.4172 -185.1181 -137.9480
ENERGY: 1500000 5.1169 5.1440 14.9997 0.0000 -10781.0316 1355.1618 0.0000 0.0000 1721.1093 -7679.4999 291.7641 -9400.6092 -7669.6747 301.2618 -755.0258 -696.4069 30784.0735 -187.5275 -138.3656
TCL: Running FEP window  17: Lambda1 0.8000000000000002 Lambda2 0.8500000000000002 [dLambda 0.050000000000000044]
TCL: Setting parameter firsttimestep to 0
TCL: Setting parameter alchLambda to 0.8000000000000002
Info: NONBONDED TABLE R-SQUARED SPACING: 0.0625
Info: NONBONDED TABLE SIZE: 705 POINTS
TCL: Setting parameter alchLambda2 to 0.8500000000000002
Info: NONBONDED TABLE R-SQUARED SPACING: 0.0625
Info: NONBONDED TABLE SIZE: 705 POINTS
TCL: Running for 1500000 steps
ETITLE: TS BOND ANGLE DIHED IMPRP ELECT VDW BOUNDARY MISC KINETIC TOTAL TEMP POTENTIAL TOTALAVG TEMPAVG PRESSURE GPRESSURE VOLUME PRESSAVG GPRESSAVG
ENERGY: 0 5.1169 5.1440 14.9997 0.0000 -10784.5607 1355.7257 0.0000 0.0000 1720.2721 -7683.3023 291.6221 -9403.5744 -7683.3023 291.6221 -771.6541 -690.4083 30784.0735 -771.6541 -690.4083
ENERGY: 300000 3.7408 2.4745 14.6655 0.0000 -10908.5103 1453.7306 0.0000 0.0000 1797.5772 -7636.3217 304.7270 -9433.8989 -7681.3008 298.9453 389.5725 397.5894 30112.8615 -52.5620 -11.6591
ENERGY: 600000 2.1960 6.9289 16.0438 0.0000 -10806.1201 1380.6309 0.0000 0.0000 1810.4780 -7589.8426 306.9139 -9400.3206 -7656.3112 301.7814 -224.0787 -173.9843 30486.2517 113.2127 141.0572
ENERGY: 900000 4.1151 7.9034 13.5203 0.0000 -10786.9238 1465.2409 0.0000 0.0000 1784.6501 -7511.4940 302.5356 -9296.1441 -7651.7990 300.2289 336.7939 394.4067 31105.6381 180.9573 224.9728
ENERGY: 1200000 3.1627 7.5469 16.4973 0.0000 -11054.8072 1563.2679 0.0000 0.0000 1753.5958 -7710.7367 297.2712 -9464.3325 -7652.0639 299.9262 954.5462 1036.6841 30425.4833 245.2173 286.1709
ENERGY: 1500000 1.1880 4.3533 15.4072 0.0000 -10918.3786 1395.2742 0.0000 0.0000 1712.1402 -7790.0157 290.2436 -9502.1559 -7658.3781 299.4595 -758.8447 -713.0471 30676.9104 131.0986 175.4143
TCL: Running FEP window  18: Lambda1 0.8500000000000002 Lambda2 0.9000000000000002 [dLambda 0.050000000000000044]
TCL: Setting parameter firsttimestep to 0
TCL: Setting parameter alchLambda to 0.8500000000000002
Info: NONBONDED TABLE R-SQUARED SPACING: 0.0625
Info: NONBONDED TABLE SIZE: 705 POINTS
TCL: Setting parameter alchLambda2 to 0.9000000000000002
Info: NONBONDED TABLE R-SQUARED SPACING: 0.0625
Info: NONBONDED TABLE SIZE: 705 POINTS
TCL: Running for 1500000 steps
ETITLE: TS BOND ANGLE DIHED IMPRP ELECT VDW BOUNDARY MISC KINETIC TOTAL TEMP POTENTIAL TOTALAVG TEMPAVG PRESSURE GPRESSURE VOLUME PRESSAVG GPRESSAVG
ENERGY: 0 1.1880 4.3533 15.4072 0.0000 -10922.0865 1396.8017 0.0000 0.0000 1711.2659 -7793.0704 290.0954 -9504.3363 -7793.0704 290.0954 -754.5379 -694.2594 30676.9104 -754.5379 -694.2594
ENERGY: 300000 2.8117 4.8270 13.8407 0.0000 -10907.8751 1431.5328 0.0000 0.0000 1776.4353 -7678.4276 301.1430 -9454.8629 -7711.8706 297.6786 134.9638 171.1623 30103.5175 105.8010 151.3114
ENERGY: 600000 4.3021 4.6653 15.2316 0.0000 -10898.3988 1424.1765 0.0000 0.0000 1755.0266 -7694.9967 297.5137 -9450.0232 -7727.6664 296.5849 -200.5263 -188.0342 30559.2173 -44.9505 -6.4597
ENERGY: 900000 5.6751 4.4336 13.6439 0.0000 -10960.2174 1384.7575 0.0000 0.0000 1820.1972 -7731.5102 308.5615 -9551.7073 -7724.0509 298.1627 -820.9229 -718.4796 30755.4140 -224.7394 -173.0776
ENERGY: 1200000 4.2514 4.1765 13.7789 0.0000 -10928.4306 1487.1465 0.0000 0.0000 1744.8963 -7674.1810 295.7965 -9419.0773 -7706.6345 298.3554 494.1180 616.2742 30232.5174 -164.5556 -105.9768
ENERGY: 1500000 5.1110 2.1140 14.1588 0.0000 -10868.9747 1378.4663 0.0000 0.0000 1815.3910 -7653.7335 307.7468 -9469.1245 -7691.3265 300.4482 -607.7430 -513.9644 30555.9611 -179.0426 -120.5077
TCL: Running FEP window  19: Lambda1 0.9000000000000002 Lambda2 0.9500000000000003 [dLambda 0.050000000000000044]
TCL: Setting parameter firsttimestep to 0
TCL: Setting parameter alchLambda to 0.9000000000000002
Info: NONBONDED TABLE R-SQUARED SPACING: 0.0625
Info: NONBONDED TABLE SIZE: 705 POINTS
TCL: Setting parameter alchLambda2 to 0.9500000000000003
Info: NONBONDED TABLE R-SQUARED SPACING: 0.0625
Info: NONBONDED TABLE SIZE: 705 POINTS
TCL: Running for 1500000 steps
ETITLE: TS BOND ANGLE DIHED IMPRP ELECT VDW BOUNDARY MISC KINETIC TOTAL TEMP POTENTIAL TOTALAVG TEMPAVG PRESSURE GPRESSURE VOLUME PRESSAVG GPRESSAVG
ENERGY: 0 5.1110 2.1140 14.1588 0.0000 -10873.4414 1382.7275 0.0000 0.0000 1814.5011 -7654.8290 307.5959 -9469.3301 -7654.8290 307.5959 -553.9695 -468.0036 30555.9611 -553.9695 -468.0036
ENERGY: 300000 2.2394 5.7672 14.3687 0.0000 -10944.4069 1490.5302 0.0000 0.0000 1763.0108 -7668.4907 298.8672 -9431.5015 -7658.2808 302.9458 290.1107 364.5953 30693.3862 22.5526 92.6829
ENERGY: 600000 4.2008 4.6612 14.6950 0.0000 -10983.4996 1500.9348 0.0000 0.0000 1765.9143 -7693.0935 299.3594 -9459.0078 -7682.3476 299.7859 312.2586 448.5516 30280.8296 23.7113 91.4522
ENERGY: 900000 3.7892 4.3902 16.4681 0.0000 -10895.0557 1403.7734 0.0000 0.0000 1787.0845 -7679.5503 302.9482 -9466.6348 -7681.5099 300.9023 -316.8365 -258.9704 30224.9080 39.8017 104.1128
ENERGY: 1200000 2.9922 4.5684 15.1086 0.0000 -10920.8404 1414.8500 0.0000 0.0000 1747.2993 -7736.0221 296.2038 -9483.3214 -7692.9745 299.9180 -190.0936 -133.2622 30131.8568 68.1683 132.0179
ENERGY: 1500000 4.3776 3.1485 14.5627 0.0000 -11029.2585 1506.3533 0.0000 0.0000 1794.2196 -7706.5969 304.1578 -9500.8165 -7690.7730 300.8792 616.7142 676.3264 30013.1218 82.0136 148.3255
TCL: Running FEP window  20: Lambda1 0.9500000000000003 Lambda2 1.0    [dLambda 0.04999999999999971]
TCL: Setting parameter firsttimestep to 0
TCL: Setting parameter alchLambda to 0.9500000000000003
Info: NONBONDED TABLE R-SQUARED SPACING: 0.0625
Info: NONBONDED TABLE SIZE: 705 POINTS
TCL: Setting parameter alchLambda2 to 1.0
Info: NONBONDED TABLE R-SQUARED SPACING: 0.0625
Info: NONBONDED TABLE SIZE: 705 POINTS
TCL: Running for 1500000 steps
ETITLE: TS BOND ANGLE DIHED IMPRP ELECT VDW BOUNDARY MISC KINETIC TOTAL TEMP POTENTIAL TOTALAVG TEMPAVG PRESSURE GPRESSURE VOLUME PRESSAVG GPRESSAVG
ENERGY: 0 4.3776 3.1485 14.5627 0.0000 -11033.8196 1508.0994 0.0000 0.0000 1793.3121 -7710.3194 304.0039 -9503.6315 -7710.3194 304.0039 628.8271 704.7932 30013.1218 628.8271 704.7932
ENERGY: 300000 3.4146 3.3439 15.6025 0.0000 -10965.9436 1508.4118 0.0000 0.0000 1782.8329 -7652.3380 302.2275 -9435.1709 -7668.9309 303.9302 568.7468 637.4241 30544.6844 460.4467 541.5037
ENERGY: 600000 1.3267 3.9281 15.0708 0.0000 -11026.8470 1484.1618 0.0000 0.0000 1810.6486 -7711.7110 306.9428 -9522.3596 -7675.2168 301.0826 154.6020 197.0509 30402.8235 163.2590 221.1941
ENERGY: 900000 6.0858 2.7467 15.2979 0.0000 -10881.9998 1449.8445 0.0000 0.0000 1773.5933 -7634.4317 300.6612 -9408.0250 -7682.8161 300.0058 -113.1142 -89.5163 31208.5607 146.2767 199.8228
ENERGY: 1200000 5.3767 3.9872 16.9679 0.0000 -10843.2282 1405.8429 0.0000 0.0000 1750.8856 -7660.1679 296.8118 -9411.0535 -7680.9044 299.4487 -141.6907 -86.3276 30858.7294 155.3218 210.4946
ENERGY: 1500000 1.8298 3.7970 15.6804 0.0000 -10983.0812 1496.8676 0.0000 0.0000 1794.1266 -7670.7798 304.1420 -9464.9064 -7682.7818 299.6188 393.3320 522.3281 30259.3676 89.9066 144.6274
TCL: Exiting due to exit command.
