Info: SIMULATION PARAMETERS:
Info: TIMESTEP               2
Info: NUMBER OF STEPS        0
Info: STEPS PER CYCLE        10
Info: PERIODIC CELL BASIS 1  44.537 0 0
Info: PERIODIC CELL BASIS 2  0 41.628 0
Info: PERIODIC CELL BASIS 3  0 0 41.374
Info: PERIODIC CELL CENTER   0 0 0
Info: WRAPPING WATERS AROUND PERIODIC BOUNDARIES ON OUTPUT.
Info: WRAPPING ALL CLUSTERS AROUND PERIODIC BOUNDARIES ON OUTPUT.
Info: FIRST LDB TIMESTEP     50
Info: LAST LDB TIMESTEP     -1
Info: HOM BACKGROUND SCALING 1
Info: PME BACKGROUND SCALING 1
Info: MIN ATOMS PER PATCH    40
Info: EMPTY PATCH LOAD       40 ATOMS
Info: INITIAL TEMPERATURE    300
Info: CENTER OF MASS MOVING INITIALLY? NO
Info: DIELECTRIC             1
Info: EXCLUDE                SCALED ONE-FOUR
Info: 1-4 ELECTROSTATICS SCALED BY 0.833333
Info: MODIFIED 1-4 VDW PARAMETERS WILL BE USED
Info: DCD FILENAME           mobley_4371692_min.dcd
Info: DCD FREQUENCY          5000
Info: DCD FIRST STEP         5000
Info: DCD FILE WILL CONTAIN UNIT CELL DATA
Info: XST FILENAME           mobley_4371692_min.xst
Info: XST FREQUENCY          5000
Info: NO VELOCITY DCD OUTPUT
Info: NO FORCE DCD OUTPUT
Info: OUTPUT FILENAME        mobley_4371692_min
Info: BINARY OUTPUT FILES WILL BE USED
Info: RESTART FILENAME       mobley_4371692_min.restart
Info: RESTART FREQUENCY      5000
Info: BINARY RESTART FILES WILL BE USED
Info: CUTOFF                 9
Info: PAIRLIST DISTANCE      11
Info: PAIRLIST SHRINK RATE   0.01
Info: PAIRLIST GROW RATE     0.01
Info: PAIRLIST TRIGGER       0.3
Info: PAIRLISTS PER CYCLE    2
Info: PAIRLISTS ENABLED
Info: MARGIN                 8
Info: HYDROGEN GROUP CUTOFF  2.5
Info: PATCH DIMENSION        21.5
Info: ENERGY OUTPUT STEPS    5000
Info: ENERGY EVALUATION STEPS    5000
Info: OUTPUT ENERGY PRECISION 4
Info: CROSSTERM ENERGY INCLUDED IN DIHEDRAL
Info: TIMING OUTPUT STEPS    50000
Info: PRESSURE OUTPUT STEPS  5000
Info: LANGEVIN DYNAMICS ACTIVE
Info: LANGEVIN TEMPERATURE   300
Info: LANGEVIN USING BBK INTEGRATOR
Info: LANGEVIN DAMPING COEFFICIENT IS 1 INVERSE PS
Info: LANGEVIN DYNAMICS APPLIED TO HYDROGENS
Info: LANGEVIN PISTON PRESSURE CONTROL ACTIVE
Info:        TARGET PRESSURE IS 1.01325 BAR
Info:     OSCILLATION PERIOD IS 50 FS
Info:             DECAY TIME IS 25 FS
Info:     PISTON TEMPERATURE IS 300 K
Info:       PRESSURE CONTROL IS GROUP-BASED
Info:    INITIAL STRAIN RATE IS 0 0 0
Info:       CELL FLUCTUATION IS ISOTROPIC
Info: PARTICLE MESH EWALD (PME) ACTIVE
Info: PME TOLERANCE               1e-06
Info: PME EWALD COEFFICIENT       0.348832
Info: PME INTERPOLATION ORDER     4
Info: PME GRID DIMENSIONS         48 44 44
Info: PME MAXIMUM GRID SPACING    1
Info: FULL ELECTROSTATIC EVALUATION FREQUENCY      2
Info: USING VERLET I (r-RESPA) MTS SCHEME.
Info: C1 SPLITTING OF LONG RANGE ELECTROSTATICS
Info: PLACING ATOMS IN PATCHES BY HYDROGEN GROUPS
Info: RIGID BONDS TO HYDROGEN : ALL
Info:         ERROR TOLERANCE : 1e-08
Info:          MAX ITERATIONS : 100
Info: RIGID WATER USING SETTLE ALGORITHM
Info: RANDOM NUMBER SEED     1741337650
Info: USE HYDROGEN BONDS?    NO
Info: Using AMBER format force field!
Info: AMBER PARM FILE        mobley_4371692.prmtop
Info: COORDINATE PDB         mobley_4371692.pdb
Info: Exclusions will be read from PARM file!
Info: SCNB (VDW SCALING)     2
Info: USING ARITHMETIC MEAN TO COMBINE L-J SIGMA PARAMETERS
Info: SUMMARY OF PARAMETERS:
Info: 10 BONDS
Info: 10 ANGLES
Info:   10 HARMONIC
Info:   0 COSINE-BASED
Info: 7 DIHEDRAL
Info: 0 IMPROPER
Info: 0 CROSSTERM
Info: 0 VDW
Info: 45 VDW_PAIRS
Info: 0 NBTHOLE_PAIRS
Info: STRUCTURE SUMMARY:
Info: 5598 ATOMS
Info: 5600 BONDS
Info: 46 ANGLES
Info: 78 DIHEDRALS
Info: 0 IMPROPERS
Info: 0 CROSSTERMS
Info: 5707 EXCLUSIONS
Info: 5580 RIGID BONDS
Info: 11214 DEGREES OF FREEDOM
Info: 1875 HYDROGEN GROUPS
Info: 3 ATOMS IN LARGEST HYDROGEN GROUP
Info: 1875 MIGRATION GROUPS
Info: 3 ATOMS IN LARGEST MIGRATION GROUP
Info: TOTAL MASS = 33694.9 amu
Info: TOTAL CHARGE = 0.000100076 e
Info: MASS DENSITY = 0.72944 g/cm^3
Info: ATOM DENSITY = 0.0729792 atoms/A^3
Info: ADDED 0 IMPLICIT EXCLUSIONS
Info: NONBONDED TABLE R-SQUARED SPACING: 0.0625
Info: NONBONDED TABLE SIZE: 705 POINTS
Info: REMOVING COM VELOCITY -0.0443656 0.085032 0.239748
TCL: Minimizing for 2000 steps
ETITLE: TS BOND ANGLE DIHED IMPRP ELECT VDW BOUNDARY MISC KINETIC TOTAL TEMP POTENTIAL TOTAL3 TEMPAVG PRESSURE GPRESSURE VOLUME PRESSAVG GPRESSAVG
ENERGY: 0 0.2887 2.5436 0.0260 0.0000 -17392.8360 1981.1801 0.0000 0.0000 0.0000 -15408.7976 0.0000 -15408.7976 -15408.7976 0.0000 11377.0880 -15406.4514 76706.8265 11377.0880 -15406.4514
ENERGY: 400 11.5001 7.4578 3.4880 0.0000 -23466.0672 3457.5139 0.0000 0.0000 0.0000 -19986.1074 0.0000 -19986.1074 -19986.1074 0.0000 16078.2847 16110.1951 76706.8265 16078.2847 16110.1951
ENERGY: 800 26.4424 7.6278 4.6583 0.0000 -24421.8199 3909.7947 0.0000 0.0000 0.0000 -20473.2967 0.0000 -20473.2967 -20473.2967 0.0000 17964.8505 17973.3732 76706.8265 17964.8505 17973.3732
ENERGY: 1200 1.9672 1.8101 5.9000 0.0000 -24878.8053 4084.3946 0.0000 0.0000 0.0000 -20784.7334 0.0000 -20784.7334 -20784.7334 0.0000 18659.5848 18653.6943 76706.8265 18659.5848 18653.6943
ENERGY: 1600 3.6317 2.0756 6.5971 0.0000 -25236.5120 4245.1980 0.0000 0.0000 0.0000 -20979.0096 0.0000 -20979.0096 -20979.0096 0.0000 19340.9664 19344.1863 76706.8265 19340.9664 19344.1863
ENERGY: 2000 1.5402 1.9327 6.7915 0.0000 -25446.1201 4343.0549 0.0000 0.0000 0.0000 -21092.8008 0.0000 -21092.8008 -21092.8008 0.0000 19814.0297 19823.7524 76706.8265 19814.0297 19823.7524
TCL: Exiting due to exit command.
Info: NAMD 3.0.1 for Linux-x86_64-multicore
Info: Please visit http://www.ks.uiuc.edu/Research/namd/
Info: for updates, documentation, and support information.
Info: Please cite Phillips et al., J. Chem. Phys. 153:044130 (2020) doi:10.1063/5.0014475
Info: in all publications reporting results obtained with NAMD.
Info: Based on Charm++/Converse 80000 for multicore-linux-x86_64-gcc
Info: Built Mon Oct 14 11:11:06 CDT 2024 by dhardy on athine.ks.uiuc.edu
Info: 1 NAMD  3.0.1  Linux-x86_64-multicore  16    k133  z5358697
Info: Running on 16 processors, 1 nodes, 1 physical nodes.
Info: CPU topology information available.
Info: Charm++/Converse parallel runtime startup completed at 0.00506631 s
Info: 1043.48 MB of memory in use based on /proc/self/stat
Info: Configuration file is mobley_4371692_equil.namd
Info: Working in the current directory /srv/scratch/z5358697/prod_prep_5/4371692
TCL: Running 25000 steps at 30 kelvin.
TCL: Suspending until startup complete.
Info: SIMULATION PARAMETERS:
Info: TIMESTEP               2
Info: NUMBER OF STEPS        0
Info: STEPS PER CYCLE        10
Info: PERIODIC CELL BASIS 1  44.537 0 0
Info: PERIODIC CELL BASIS 2  0 41.628 0
Info: PERIODIC CELL BASIS 3  0 0 41.374
Info: PERIODIC CELL CENTER   0 0 0
Info: WRAPPING WATERS AROUND PERIODIC BOUNDARIES ON OUTPUT.
Info: WRAPPING ALL CLUSTERS AROUND PERIODIC BOUNDARIES ON OUTPUT.
Info: FIRST LDB TIMESTEP     50
Info: LAST LDB TIMESTEP     -1
Info: HOM BACKGROUND SCALING 1
Info: PME BACKGROUND SCALING 1
Info: MIN ATOMS PER PATCH    40
Info: EMPTY PATCH LOAD       40 ATOMS
Info: INITIAL TEMPERATURE    300
Info: CENTER OF MASS MOVING INITIALLY? NO
Info: DIELECTRIC             1
Info: EXCLUDE                SCALED ONE-FOUR
Info: 1-4 ELECTROSTATICS SCALED BY 0.833333
Info: MODIFIED 1-4 VDW PARAMETERS WILL BE USED
Info: DCD FILENAME           mobley_4371692_equil.dcd
Info: DCD FREQUENCY          5000
Info: DCD FIRST STEP         5000
Info: DCD FILE WILL CONTAIN UNIT CELL DATA
Info: XST FILENAME           mobley_4371692_equil.xst
Info: XST FREQUENCY          5000
Info: NO VELOCITY DCD OUTPUT
Info: NO FORCE DCD OUTPUT
Info: OUTPUT FILENAME        mobley_4371692_equil
Info: BINARY OUTPUT FILES WILL BE USED
Info: RESTART FILENAME       mobley_4371692_equil.restart
Info: RESTART FREQUENCY      5000
Info: BINARY RESTART FILES WILL BE USED
Info: CUTOFF                 9
Info: PAIRLIST DISTANCE      11
Info: PAIRLIST SHRINK RATE   0.01
Info: PAIRLIST GROW RATE     0.01
Info: PAIRLIST TRIGGER       0.3
Info: PAIRLISTS PER CYCLE    2
Info: PAIRLISTS ENABLED
Info: MARGIN                 8
Info: HYDROGEN GROUP CUTOFF  2.5
Info: PATCH DIMENSION        21.5
Info: ENERGY OUTPUT STEPS    5000
Info: ENERGY EVALUATION STEPS    5000
Info: OUTPUT ENERGY PRECISION 4
Info: CROSSTERM ENERGY INCLUDED IN DIHEDRAL
Info: TIMING OUTPUT STEPS    50000
Info: PRESSURE OUTPUT STEPS  5000
Info: LANGEVIN DYNAMICS ACTIVE
Info: LANGEVIN TEMPERATURE   30
Info: LANGEVIN USING BBK INTEGRATOR
Info: LANGEVIN DAMPING COEFFICIENT IS 1 INVERSE PS
Info: LANGEVIN DYNAMICS APPLIED TO HYDROGENS
Info: LANGEVIN PISTON PRESSURE CONTROL ACTIVE
Info:        TARGET PRESSURE IS 1.01325 BAR
Info:     OSCILLATION PERIOD IS 50 FS
Info:             DECAY TIME IS 25 FS
Info:     PISTON TEMPERATURE IS 300 K
Info:       PRESSURE CONTROL IS GROUP-BASED
Info:    INITIAL STRAIN RATE IS 0 0 0
Info:       CELL FLUCTUATION IS ISOTROPIC
Info: PARTICLE MESH EWALD (PME) ACTIVE
Info: PME TOLERANCE               1e-06
Info: PME EWALD COEFFICIENT       0.348832
Info: PME INTERPOLATION ORDER     4
Info: PME GRID DIMENSIONS         48 44 44
Info: PME MAXIMUM GRID SPACING    1
Info: FULL ELECTROSTATIC EVALUATION FREQUENCY      2
Info: USING VERLET I (r-RESPA) MTS SCHEME.
Info: C1 SPLITTING OF LONG RANGE ELECTROSTATICS
Info: PLACING ATOMS IN PATCHES BY HYDROGEN GROUPS
Info: RIGID BONDS TO HYDROGEN : ALL
Info:         ERROR TOLERANCE : 1e-08
Info:          MAX ITERATIONS : 100
Info: RIGID WATER USING SETTLE ALGORITHM
Info: RANDOM NUMBER SEED     1741337673
Info: USE HYDROGEN BONDS?    NO
Info: Using AMBER format force field!
Info: AMBER PARM FILE        mobley_4371692.prmtop
Info: COORDINATE PDB         mobley_4371692.pdb
Info: Exclusions will be read from PARM file!
Info: SCNB (VDW SCALING)     2
Info: USING ARITHMETIC MEAN TO COMBINE L-J SIGMA PARAMETERS
Info: BINARY COORDINATES     mobley_4371692_min.coor
Info: SUMMARY OF PARAMETERS:
Info: 10 BONDS
Info: 10 ANGLES
Info:   10 HARMONIC
Info:   0 COSINE-BASED
Info: 7 DIHEDRAL
Info: 0 IMPROPER
Info: 0 CROSSTERM
Info: 0 VDW
Info: 45 VDW_PAIRS
Info: 0 NBTHOLE_PAIRS
Info: STRUCTURE SUMMARY:
Info: 5598 ATOMS
Info: 5600 BONDS
Info: 46 ANGLES
Info: 78 DIHEDRALS
Info: 0 IMPROPERS
Info: 0 CROSSTERMS
Info: 5707 EXCLUSIONS
Info: 5580 RIGID BONDS
Info: 11214 DEGREES OF FREEDOM
Info: 1875 HYDROGEN GROUPS
Info: 3 ATOMS IN LARGEST HYDROGEN GROUP
Info: 1875 MIGRATION GROUPS
Info: 3 ATOMS IN LARGEST MIGRATION GROUP
Info: TOTAL MASS = 33694.9 amu
Info: TOTAL CHARGE = 0.000100076 e
Info: MASS DENSITY = 0.72944 g/cm^3
Info: ATOM DENSITY = 0.0729792 atoms/A^3
Info: ADDED 0 IMPLICIT EXCLUSIONS
Info: NONBONDED TABLE R-SQUARED SPACING: 0.0625
Info: NONBONDED TABLE SIZE: 705 POINTS
Info: REMOVING COM VELOCITY 0.123314 -0.00714418 0.0902739
TCL: Running for 25000 steps
ETITLE: TS BOND ANGLE DIHED IMPRP ELECT VDW BOUNDARY MISC KINETIC TOTAL TEMP POTENTIAL TOTAL3 TEMPAVG PRESSURE GPRESSURE VOLUME PRESSAVG GPRESSAVG
ENERGY: 0 1.5402 1.9327 6.7915 0.0000 -25446.1201 4343.0549 0.0000 0.0000 3353.4672 -17739.3335 300.9705 -21092.8008 -17738.6396 300.9705 12.9008 49.8557 76706.8265 12.9008 49.8557
ENERGY: 5000 2.4997 3.0585 4.1830 0.0000 -26953.8831 4697.6850 0.0000 0.0000 338.2855 -21908.1713 30.3608 -22246.4568 -21907.0517 48.4080 181.2741 260.5982 53925.9234 1.9323 1.8960
ENERGY: 10000 2.8687 2.8902 3.8128 0.0000 -26769.3291 4495.0846 0.0000 0.0000 331.9857 -21932.6872 29.7954 -22264.6729 -21931.8353 30.2642 -848.7297 -780.9372 54402.9751 1.3790 1.3747
ENERGY: 15000 3.0173 4.2949 4.4493 0.0000 -26887.0836 4583.7701 0.0000 0.0000 324.3642 -21967.1877 29.1114 -22291.5519 -21966.3955 30.0305 -419.0682 -365.7024 54007.6537 1.4017 1.4407
ENERGY: 20000 2.4197 3.0707 3.5125 0.0000 -27005.3356 4685.0856 0.0000 0.0000 339.7121 -21971.5350 30.4888 -22311.2471 -21970.6517 30.0372 19.6762 77.8265 53887.3926 7.6094 7.6795
ENERGY: 25000 2.2195 3.3332 3.9710 0.0000 -27010.5170 4694.4368 0.0000 0.0000 341.8066 -21964.7500 30.6768 -22306.5565 -21963.1253 30.1961 110.2946 156.9522 53816.1526 2.0843 2.1677
TCL: Running 25000 steps at 60 kelvin.
TCL: Setting parameter langevinTemp to 60
TCL: Running for 25000 steps
ETITLE: TS BOND ANGLE DIHED IMPRP ELECT VDW BOUNDARY MISC KINETIC TOTAL TEMP POTENTIAL TOTAL3 TEMPAVG PRESSURE GPRESSURE VOLUME PRESSAVG GPRESSAVG
ENERGY: 25000 2.2195 3.3332 3.9710 0.0000 -27010.5170 4694.4368 0.0000 0.0000 341.6485 -21964.9081 30.6626 -22306.5565 -21964.2645 30.6626 101.3938 157.3310 53816.1526 101.3938 157.3310
ENERGY: 30000 2.3454 4.7933 4.0635 0.0000 -26413.2336 4422.2982 0.0000 0.0000 667.2493 -21312.4838 59.8850 -21979.7331 -21310.2943 57.0942 -413.6077 -360.7839 54190.4190 -1.5644 -1.6652
ENERGY: 35000 2.1156 3.6984 6.4186 0.0000 -26319.6425 4283.3804 0.0000 0.0000 659.6836 -21364.3458 59.2060 -22024.0294 -21362.3288 59.8184 -1179.6278 -1116.8150 54407.1453 -0.2410 -0.1794
ENERGY: 40000 2.8090 3.0198 4.7669 0.0000 -26543.9185 4484.0186 0.0000 0.0000 666.5758 -21382.7285 59.8245 -22049.3043 -21381.5639 59.9969 -282.3999 -216.9133 53895.2399 3.2381 3.3887
ENERGY: 45000 3.7065 3.0804 4.8378 0.0000 -26476.0120 4407.1054 0.0000 0.0000 665.3870 -21391.8949 59.7178 -22057.2819 -21390.8569 59.5660 -671.7186 -619.4775 54111.1153 2.0440 1.7917
ENERGY: 50000 3.5813 2.4940 5.8010 0.0000 -26600.3861 4519.2892 0.0000 0.0000 670.5257 -21398.6949 60.1790 -22069.2206 -21397.1379 60.2657 -163.0685 -136.2914 53859.2495 -2.2590 -2.1892
TCL: Running 25000 steps at 90 kelvin.
TCL: Setting parameter langevinTemp to 90
TCL: Running for 25000 steps
ETITLE: TS BOND ANGLE DIHED IMPRP ELECT VDW BOUNDARY MISC KINETIC TOTAL TEMP POTENTIAL TOTAL3 TEMPAVG PRESSURE GPRESSURE VOLUME PRESSAVG GPRESSAVG
ENERGY: 50000 3.5813 2.4940 5.8010 0.0000 -26600.3861 4519.2892 0.0000 0.0000 670.2058 -21399.0148 60.1503 -22069.2206 -21397.5667 60.1503 -184.0602 -136.3609 53859.2495 -184.0602 -136.3609
ENERGY: 55000 2.3435 3.2955 5.0533 0.0000 -26365.0688 4605.0473 0.0000 0.0000 1009.9494 -20739.3798 90.6420 -21749.3292 -20736.6113 87.2144 875.5728 946.1460 53750.5727 3.3466 3.4945
ENERGY: 60000 3.5450 2.5580 4.8157 0.0000 -26136.8209 4354.3669 0.0000 0.0000 986.1385 -20785.3967 88.5050 -21771.5352 -20782.4485 90.2180 -422.6457 -353.0688 54437.3054 7.5339 7.6647
ENERGY: 65000 4.5985 2.5239 4.0942 0.0000 -26267.9342 4438.5122 0.0000 0.0000 1004.4430 -20813.7624 90.1478 -21818.2054 -20810.8331 90.6193 -148.6685 -64.2183 54231.1461 4.4250 4.3537
ENERGY: 70000 4.4466 4.1690 3.6078 0.0000 -26163.2762 4313.8534 0.0000 0.0000 1008.4726 -20828.7268 90.5095 -21837.1994 -20825.5693 89.7707 -660.6300 -628.1920 54371.8682 3.0038 2.7723
ENERGY: 75000 3.6507 2.6229 7.0627 0.0000 -26422.0301 4585.0908 0.0000 0.0000 1005.0822 -20818.5207 90.2052 -21823.6029 -20815.3718 90.2066 454.6148 527.7467 54211.8457 1.7315 2.1814
TCL: Running 25000 steps at 120 kelvin.
TCL: Setting parameter langevinTemp to 120
TCL: Running for 25000 steps
ETITLE: TS BOND ANGLE DIHED IMPRP ELECT VDW BOUNDARY MISC KINETIC TOTAL TEMP POTENTIAL TOTAL3 TEMPAVG PRESSURE GPRESSURE VOLUME PRESSAVG GPRESSAVG
ENERGY: 75000 3.6507 2.6229 7.0627 0.0000 -26422.0301 4585.0908 0.0000 0.0000 1004.5724 -20819.0306 90.1594 -21823.6029 -20816.9879 90.1594 475.4093 527.9430 54211.8457 475.4093 527.9430
ENERGY: 80000 4.2216 3.1762 6.5411 0.0000 -25795.2194 4294.3334 0.0000 0.0000 1325.4074 -20161.5397 118.9540 -21486.9471 -20158.3349 116.9841 -351.0578 -285.2311 55109.6083 6.6728 6.6471
ENERGY: 85000 5.2224 4.9409 5.8333 0.0000 -25869.5324 4312.8871 0.0000 0.0000 1325.8896 -20214.7591 118.9973 -21540.6486 -20211.0410 120.3040 -317.6717 -241.5047 54886.4994 0.9392 0.4720
ENERGY: 90000 3.0175 3.3059 5.8267 0.0000 -25965.9795 4389.1566 0.0000 0.0000 1355.3934 -20209.2794 121.6453 -21564.6728 -20207.1645 119.3406 138.4835 197.1438 54500.8275 3.1547 3.6229
ENERGY: 95000 3.8300 3.0481 4.8667 0.0000 -25863.6853 4279.8659 0.0000 0.0000 1358.2119 -20213.8627 121.8982 -21572.0746 -20212.6569 120.1754 -347.4262 -263.8191 54624.4868 2.5380 2.3308
ENERGY: 100000 3.7163 5.1806 7.4418 0.0000 -25864.5643 4229.4919 0.0000 0.0000 1356.5979 -20262.1358 121.7534 -21618.7337 -20257.4077 120.7854 -717.0053 -665.8212 54705.2760 0.5290 0.3851
TCL: Running 25000 steps at 150 kelvin.
TCL: Setting parameter langevinTemp to 150
TCL: Running for 25000 steps
ETITLE: TS BOND ANGLE DIHED IMPRP ELECT VDW BOUNDARY MISC KINETIC TOTAL TEMP POTENTIAL TOTAL3 TEMPAVG PRESSURE GPRESSURE VOLUME PRESSAVG GPRESSAVG
ENERGY: 100000 3.7163 5.1806 7.4418 0.0000 -25864.5643 4229.4919 0.0000 0.0000 1355.9425 -20262.7912 121.6945 -21618.7337 -20259.9062 121.6945 -718.7099 -664.8683 54705.2760 -718.7099 -664.8683
ENERGY: 105000 3.6513 3.3184 6.8029 0.0000 -25472.8906 4287.3063 0.0000 0.0000 1651.1034 -19520.7084 148.1850 -21171.8118 -19517.9752 147.2734 305.7175 357.8725 54826.4411 3.2358 3.1170
ENERGY: 110000 4.1718 5.8600 5.2138 0.0000 -25536.2048 4245.0445 0.0000 0.0000 1684.4162 -19591.4986 151.1747 -21275.9147 -19588.5841 149.3563 72.6294 145.6596 54527.0678 3.1953 2.9130
ENERGY: 115000 2.9035 5.0570 8.2972 0.0000 -25558.0567 4201.2962 0.0000 0.0000 1652.0480 -19688.4548 148.2697 -21340.5028 -19686.3889 150.1762 -208.9248 -140.8815 54779.7384 2.4699 3.2673
ENERGY: 120000 4.7539 7.6951 6.4616 0.0000 -25447.9913 4151.4130 0.0000 0.0000 1665.1305 -19612.5372 149.4439 -21277.6677 -19607.0320 149.7384 -366.1874 -301.6213 54655.3544 1.0154 0.8104
ENERGY: 125000 6.1677 6.2360 5.3964 0.0000 -25512.1893 4199.9765 0.0000 0.0000 1652.7262 -19641.6866 148.3306 -21294.4128 -19636.1929 150.6310 -255.3092 -174.2729 54583.2232 5.5737 5.4586
TCL: Running 50000 steps at 180 kelvin.
TCL: Setting parameter langevinTemp to 180
TCL: Running for 50000 steps
ETITLE: TS BOND ANGLE DIHED IMPRP ELECT VDW BOUNDARY MISC KINETIC TOTAL TEMP POTENTIAL TOTAL3 TEMPAVG PRESSURE GPRESSURE VOLUME PRESSAVG GPRESSAVG
ENERGY: 125000 6.1677 6.2360 5.3964 0.0000 -25512.1893 4199.9765 0.0000 0.0000 1651.9053 -19642.5075 148.2569 -21294.4128 -19639.1488 148.2569 -228.2291 -174.0779 54583.2232 -228.2291 -174.0779
ENERGY: 135000 2.2331 4.2969 9.5372 0.0000 -24889.5211 4040.0943 0.0000 0.0000 1994.3757 -18838.9840 178.9933 -20833.3596 -18831.5595 180.3369 57.8634 95.9599 54907.8716 4.3359 4.3563
ENERGY: 145000 4.7044 5.8618 3.3392 0.0000 -24724.0543 3900.6804 0.0000 0.0000 1990.3982 -18819.0702 178.6363 -20809.4684 -18815.0299 179.7684 -459.3597 -401.5018 54724.6354 0.8093 1.3543
ENERGY: 155000 3.3011 5.6034 6.5211 0.0000 -24779.2386 3971.4662 0.0000 0.0000 2001.3342 -18791.0127 179.6178 -20792.3469 -18786.1299 179.7469 -151.5438 -101.5133 54790.1134 1.5550 1.3283
ENERGY: 165000 5.5842 6.2595 6.0892 0.0000 -24954.3707 4181.3663 0.0000 0.0000 1950.4085 -18804.6631 175.0473 -20755.0715 -18800.6013 181.3213 1068.2879 1130.3942 54209.0178 -2.7907 -3.3432
ENERGY: 175000 5.1479 5.0452 5.2874 0.0000 -24891.1992 4063.1552 0.0000 0.0000 1975.9395 -18836.6240 177.3387 -20812.5635 -18833.0822 180.5062 54.4366 116.2882 55013.0746 -0.7778 -1.4168
TCL: Running 50000 steps at 210 kelvin.
TCL: Setting parameter langevinTemp to 210
TCL: Running for 50000 steps
ETITLE: TS BOND ANGLE DIHED IMPRP ELECT VDW BOUNDARY MISC KINETIC TOTAL TEMP POTENTIAL TOTAL3 TEMPAVG PRESSURE GPRESSURE VOLUME PRESSAVG GPRESSAVG
ENERGY: 175000 5.1479 5.0452 5.2874 0.0000 -24891.1992 4063.1552 0.0000 0.0000 1974.9321 -18837.6314 177.2483 -20812.5635 -18833.9593 177.2483 58.1049 115.4799 55013.0746 58.1049 115.4799
ENERGY: 185000 7.7143 6.2302 6.7614 0.0000 -23677.9634 3697.3719 0.0000 0.0000 2370.1773 -17589.7083 212.7212 -19959.8857 -17584.8886 208.7669 233.8286 291.5128 54812.8109 5.5413 5.7236
ENERGY: 195000 6.3150 6.5313 4.5600 0.0000 -23629.3040 3577.3145 0.0000 0.0000 2283.8825 -17750.7007 204.9763 -20034.5832 -17744.4894 208.5895 -489.8258 -406.9525 55013.2671 -1.4939 -1.8593
ENERGY: 205000 6.2648 6.0502 7.1361 0.0000 -23531.4776 3587.9649 0.0000 0.0000 2376.5065 -17547.5550 213.2892 -19924.0615 -17541.0965 210.0650 -183.1112 -81.4422 55093.3213 -0.8815 -0.5800
ENERGY: 215000 5.7097 4.9353 4.9210 0.0000 -23389.4449 3382.4906 0.0000 0.0000 2388.2699 -17603.1185 214.3449 -19991.3884 -17595.9168 210.3809 -1240.6956 -1155.5269 55177.0821 2.1279 1.4733
ENERGY: 225000 4.8991 6.9512 5.6111 0.0000 -23712.8004 3703.5658 0.0000 0.0000 2372.5887 -17619.1845 212.9376 -19991.7732 -17614.6240 208.8993 442.5667 511.9225 54296.5510 4.0044 4.1821
TCL: Running 50000 steps at 240 kelvin.
TCL: Setting parameter langevinTemp to 240
TCL: Running for 50000 steps
ETITLE: TS BOND ANGLE DIHED IMPRP ELECT VDW BOUNDARY MISC KINETIC TOTAL TEMP POTENTIAL TOTAL3 TEMPAVG PRESSURE GPRESSURE VOLUME PRESSAVG GPRESSAVG
ENERGY: 225000 4.8991 6.9512 5.6111 0.0000 -23712.8004 3703.5658 0.0000 0.0000 2371.3894 -17620.3838 212.8299 -19991.7732 -17616.3991 212.8299 430.9959 511.1482 54296.5510 430.9959 511.1482
ENERGY: 235000 6.5024 7.6060 5.9164 0.0000 -22210.0395 3164.9873 0.0000 0.0000 2657.8983 -16367.1292 238.5438 -19025.0275 -16359.3688 239.8615 -114.0280 -0.6516 55051.9268 5.8303 5.9921
ENERGY: 245000 7.9613 6.0540 6.2116 0.0000 -22432.6593 3308.2065 0.0000 0.0000 2633.6859 -16470.5400 236.3708 -19104.2259 -16467.1769 238.8384 124.6302 192.3689 54885.2763 -1.2351 -1.2443
ENERGY: 255000 9.2000 5.8428 5.3217 0.0000 -22263.1527 3145.4453 0.0000 0.0000 2670.3888 -16426.9541 239.6648 -19097.3430 -16421.9735 240.3143 -521.7087 -419.6598 55081.6815 1.4422 1.7953
ENERGY: 265000 5.6730 7.6518 8.7561 0.0000 -22598.3949 3382.0401 0.0000 0.0000 2688.9978 -16505.2761 241.3350 -19194.2740 -16500.7659 239.4877 387.3939 474.6213 54970.3087 1.4979 1.0610
ENERGY: 275000 5.3807 6.1432 7.4911 0.0000 -22500.9098 3326.7952 0.0000 0.0000 2773.7645 -16381.3352 248.9427 -19155.0997 -16374.5153 241.5114 437.3887 511.8636 54685.6324 7.2833 5.9414
TCL: Running 50000 steps at 270 kelvin.
TCL: Setting parameter langevinTemp to 270
TCL: Running for 50000 steps
ETITLE: TS BOND ANGLE DIHED IMPRP ELECT VDW BOUNDARY MISC KINETIC TOTAL TEMP POTENTIAL TOTAL3 TEMPAVG PRESSURE GPRESSURE VOLUME PRESSAVG GPRESSAVG
ENERGY: 275000 5.3807 6.1432 7.4911 0.0000 -22500.9098 3326.7952 0.0000 0.0000 2772.4103 -16382.6893 248.8212 -19155.0997 -16378.5969 248.8212 427.4754 512.7115 54685.6324 427.4754 512.7115
ENERGY: 285000 5.2874 6.1646 11.2802 0.0000 -21307.2196 2958.2907 0.0000 0.0000 2919.5567 -15406.6400 262.0274 -18326.1967 -15401.6972 271.0469 -77.2870 24.2765 56102.8302 0.8683 0.1525
ENERGY: 295000 4.5584 5.4723 5.3739 0.0000 -21313.9395 2991.2229 0.0000 0.0000 2934.9394 -15372.3726 263.4080 -18307.3120 -15366.6771 269.1049 -33.5879 81.5777 56503.0246 4.9833 4.8492
ENERGY: 305000 5.1446 5.9466 12.7614 0.0000 -21430.2049 2986.3971 0.0000 0.0000 2993.6638 -15426.2914 268.6785 -18419.9552 -15420.9143 270.7736 110.4583 195.7180 55512.9712 -1.0242 -0.9953
ENERGY: 315000 10.8166 6.6943 6.6054 0.0000 -21295.1173 3018.4353 0.0000 0.0000 2999.6741 -15252.8915 269.2179 -18252.5656 -15248.7826 271.1487 572.4668 642.0182 55537.8380 3.5878 3.3012
ENERGY: 325000 5.5975 6.7324 4.5316 0.0000 -21334.5955 2952.5552 0.0000 0.0000 3016.1250 -15349.0539 270.6943 -18365.1788 -15340.5626 269.1496 -232.2855 -166.4290 56279.7081 4.6967 4.5981
TCL: Running 1000000 steps at 300 kelvin.
TCL: Setting parameter langevinTemp to 300
TCL: Running for 1000000 steps
ETITLE: TS BOND ANGLE DIHED IMPRP ELECT VDW BOUNDARY MISC KINETIC TOTAL TEMP POTENTIAL TOTAL3 TEMPAVG PRESSURE GPRESSURE VOLUME PRESSAVG GPRESSAVG
ENERGY: 325000 5.5975 6.7324 4.5316 0.0000 -21334.5955 2952.5552 0.0000 0.0000 3014.6383 -15350.5405 270.5609 -18365.1788 -15345.3484 270.5609 -254.7589 -166.6343 56279.7081 -254.7589 -166.6343
ENERGY: 525000 6.3301 10.7474 7.5225 0.0000 -20328.5828 2729.4069 0.0000 0.0000 3358.1811 -14216.3948 301.3935 -17574.5759 -14210.9170 300.5378 146.9681 218.1619 57298.7219 -0.0613 -0.5040
ENERGY: 725000 4.9567 8.3569 8.0323 0.0000 -20172.1171 2659.3973 0.0000 0.0000 3296.2490 -14195.1249 295.8352 -17491.3738 -14191.0792 300.5197 -363.4744 -233.5378 58329.3806 0.3472 0.5542
ENERGY: 925000 7.7349 9.0713 10.2314 0.0000 -20154.4989 2669.9230 0.0000 0.0000 3363.8255 -14093.7129 301.9001 -17457.5384 -14085.9239 298.9590 -238.8993 -124.5542 57831.2289 -0.4672 0.0817
ENERGY: 1125000 6.6847 10.0420 7.0259 0.0000 -20152.1253 2742.3238 0.0000 0.0000 3347.5329 -14038.5160 300.4379 -17386.0490 -14029.3250 300.4532 238.4033 316.7178 58122.8988 1.2046 0.7129
ENERGY: 1325000 8.2066 8.2840 8.2534 0.0000 -20297.3407 2713.8912 0.0000 0.0000 3320.0153 -14238.6902 297.9682 -17558.7055 -14233.2305 297.9453 -49.9829 32.1493 57040.0727 3.9689 3.9541
TCL: Exiting due to exit command.
