Info: SIMULATION PARAMETERS:
Info: TIMESTEP               2
Info: NUMBER OF STEPS        0
Info: STEPS PER CYCLE        10
Info: PERIODIC CELL BASIS 1  39.806 0 0
Info: PERIODIC CELL BASIS 2  0 40.343 0
Info: PERIODIC CELL BASIS 3  0 0 44.319
Info: PERIODIC CELL CENTER   0 0 0
Info: WRAPPING WATERS AROUND PERIODIC BOUNDARIES ON OUTPUT.
Info: WRAPPING ALL CLUSTERS AROUND PERIODIC BOUNDARIES ON OUTPUT.
Info: FIRST LDB TIMESTEP     50
Info: LAST LDB TIMESTEP     -1
Info: HOM BACKGROUND SCALING 1
Info: PME BACKGROUND SCALING 1
Info: MIN ATOMS PER PATCH    40
Info: EMPTY PATCH LOAD       40 ATOMS
Info: INITIAL TEMPERATURE    300
Info: CENTER OF MASS MOVING INITIALLY? NO
Info: DIELECTRIC             1
Info: EXCLUDE                SCALED ONE-FOUR
Info: 1-4 ELECTROSTATICS SCALED BY 0.833333
Info: MODIFIED 1-4 VDW PARAMETERS WILL BE USED
Info: DCD FILENAME           mobley_7463799_min.dcd
Info: DCD FREQUENCY          5000
Info: DCD FIRST STEP         5000
Info: DCD FILE WILL CONTAIN UNIT CELL DATA
Info: XST FILENAME           mobley_7463799_min.xst
Info: XST FREQUENCY          5000
Info: NO VELOCITY DCD OUTPUT
Info: NO FORCE DCD OUTPUT
Info: OUTPUT FILENAME        mobley_7463799_min
Info: BINARY OUTPUT FILES WILL BE USED
Info: RESTART FILENAME       mobley_7463799_min.restart
Info: RESTART FREQUENCY      5000
Info: BINARY RESTART FILES WILL BE USED
Info: CUTOFF                 9
Info: PAIRLIST DISTANCE      11
Info: PAIRLIST SHRINK RATE   0.01
Info: PAIRLIST GROW RATE     0.01
Info: PAIRLIST TRIGGER       0.3
Info: PAIRLISTS PER CYCLE    2
Info: PAIRLISTS ENABLED
Info: MARGIN                 8
Info: HYDROGEN GROUP CUTOFF  2.5
Info: PATCH DIMENSION        21.5
Info: ENERGY OUTPUT STEPS    5000
Info: ENERGY EVALUATION STEPS    5000
Info: OUTPUT ENERGY PRECISION 4
Info: CROSSTERM ENERGY INCLUDED IN DIHEDRAL
Info: TIMING OUTPUT STEPS    50000
Info: PRESSURE OUTPUT STEPS  5000
Info: LANGEVIN DYNAMICS ACTIVE
Info: LANGEVIN TEMPERATURE   300
Info: LANGEVIN USING BBK INTEGRATOR
Info: LANGEVIN DAMPING COEFFICIENT IS 1 INVERSE PS
Info: LANGEVIN DYNAMICS APPLIED TO HYDROGENS
Info: LANGEVIN PISTON PRESSURE CONTROL ACTIVE
Info:        TARGET PRESSURE IS 1.01325 BAR
Info:     OSCILLATION PERIOD IS 50 FS
Info:             DECAY TIME IS 25 FS
Info:     PISTON TEMPERATURE IS 300 K
Info:       PRESSURE CONTROL IS GROUP-BASED
Info:    INITIAL STRAIN RATE IS 0 0 0
Info:       CELL FLUCTUATION IS ISOTROPIC
Info: PARTICLE MESH EWALD (PME) ACTIVE
Info: PME TOLERANCE               1e-06
Info: PME EWALD COEFFICIENT       0.348832
Info: PME INTERPOLATION ORDER     4
Info: PME GRID DIMENSIONS         40 44 48
Info: PME MAXIMUM GRID SPACING    1
Info: FULL ELECTROSTATIC EVALUATION FREQUENCY      2
Info: USING VERLET I (r-RESPA) MTS SCHEME.
Info: C1 SPLITTING OF LONG RANGE ELECTROSTATICS
Info: PLACING ATOMS IN PATCHES BY HYDROGEN GROUPS
Info: RIGID BONDS TO HYDROGEN : ALL
Info:         ERROR TOLERANCE : 1e-08
Info:          MAX ITERATIONS : 100
Info: RIGID WATER USING SETTLE ALGORITHM
Info: RANDOM NUMBER SEED     1741388580
Info: USE HYDROGEN BONDS?    NO
Info: Using AMBER format force field!
Info: AMBER PARM FILE        mobley_7463799.prmtop
Info: COORDINATE PDB         mobley_7463799.pdb
Info: Exclusions will be read from PARM file!
Info: SCNB (VDW SCALING)     2
Info: USING ARITHMETIC MEAN TO COMBINE L-J SIGMA PARAMETERS
Info: SUMMARY OF PARAMETERS:
Info: 10 BONDS
Info: 13 ANGLES
Info:   13 HARMONIC
Info:   0 COSINE-BASED
Info: 11 DIHEDRAL
Info: 0 IMPROPER
Info: 0 CROSSTERM
Info: 0 VDW
Info: 45 VDW_PAIRS
Info: 0 NBTHOLE_PAIRS
Info: STRUCTURE SUMMARY:
Info: 5161 ATOMS
Info: 5161 BONDS
Info: 37 ANGLES
Info: 57 DIHEDRALS
Info: 0 IMPROPERS
Info: 0 CROSSTERMS
Info: 5246 EXCLUSIONS
Info: 5151 RIGID BONDS
Info: 10332 DEGREES OF FREEDOM
Info: 1723 HYDROGEN GROUPS
Info: 3 ATOMS IN LARGEST HYDROGEN GROUP
Info: 1723 MIGRATION GROUPS
Info: 3 ATOMS IN LARGEST MIGRATION GROUP
Info: TOTAL MASS = 30997.6 amu
Info: TOTAL CHARGE = -5.58794e-08 e
Info: MASS DENSITY = 0.723237 g/cm^3
Info: ATOM DENSITY = 0.0725149 atoms/A^3
Info: ADDED 0 IMPLICIT EXCLUSIONS
Info: NONBONDED TABLE R-SQUARED SPACING: 0.0625
Info: NONBONDED TABLE SIZE: 705 POINTS
Info: REMOVING COM VELOCITY -0.0687248 0.141543 0.030102
TCL: Minimizing for 2000 steps
ETITLE: TS BOND ANGLE DIHED IMPRP ELECT VDW BOUNDARY MISC KINETIC TOTAL TEMP POTENTIAL TOTAL3 TEMPAVG PRESSURE GPRESSURE VOLUME PRESSAVG GPRESSAVG
ENERGY: 0 0.2112 0.3737 0.9802 0.0000 -16150.9335 1823.1372 0.0000 0.0000 0.0000 -14326.2312 0.0000 -14326.2312 -14326.2312 0.0000 11177.9961 -15634.5004 71171.5922 11177.9961 -15634.5004
ENERGY: 400 40.6004 18.1582 2.2484 0.0000 -21607.5331 3167.1833 0.0000 0.0000 0.0000 -18379.3428 0.0000 -18379.3428 -18379.3428 0.0000 15911.1535 10679.5420 71171.5922 15911.1535 10679.5420
ENERGY: 800 1.1655 0.6722 1.0086 0.0000 -22722.0613 3630.1605 0.0000 0.0000 0.0000 -19089.0545 0.0000 -19089.0545 -19089.0545 0.0000 18024.8420 12475.3578 71171.5922 18024.8420 12475.3578
ENERGY: 1200 10.5154 6.4654 1.3260 0.0000 -23315.6466 3931.5628 0.0000 0.0000 0.0000 -19365.7770 0.0000 -19365.7770 -19365.7770 0.0000 19382.1464 13673.4984 71171.5922 19382.1464 13673.4984
ENERGY: 1600 0.3530 0.3944 1.0478 0.0000 -23529.1727 4031.7064 0.0000 0.0000 0.0000 -19495.6711 0.0000 -19495.6711 -19495.6711 0.0000 19949.1628 14055.6478 71171.5922 19949.1628 14055.6478
ENERGY: 2000 0.2220 0.3396 1.0523 0.0000 -23636.7749 4064.2730 0.0000 0.0000 0.0000 -19570.8879 0.0000 -19570.8879 -19570.8879 0.0000 20118.2533 14112.7748 71171.5922 20118.2533 14112.7748
TCL: Exiting due to exit command.
Info: NAMD 3.0.1 for Linux-x86_64-multicore
Info: Please visit http://www.ks.uiuc.edu/Research/namd/
Info: for updates, documentation, and support information.
Info: Please cite Phillips et al., J. Chem. Phys. 153:044130 (2020) doi:10.1063/5.0014475
Info: in all publications reporting results obtained with NAMD.
Info: Based on Charm++/Converse 80000 for multicore-linux-x86_64-gcc
Info: Built Mon Oct 14 11:11:06 CDT 2024 by dhardy on athine.ks.uiuc.edu
Info: 1 NAMD  3.0.1  Linux-x86_64-multicore  16    k006  z5358697
Info: Running on 16 processors, 1 nodes, 1 physical nodes.
Info: CPU topology information available.
Info: Charm++/Converse parallel runtime startup completed at 0.00898731 s
Info: 1043.45 MB of memory in use based on /proc/self/stat
Info: Configuration file is mobley_7463799_equil.namd
Info: Working in the current directory /srv/scratch/z5358697/prod_prep_9/7463799
TCL: Running 25000 steps at 30 kelvin.
TCL: Suspending until startup complete.
Info: SIMULATION PARAMETERS:
Info: TIMESTEP               2
Info: NUMBER OF STEPS        0
Info: STEPS PER CYCLE        10
Info: PERIODIC CELL BASIS 1  39.806 0 0
Info: PERIODIC CELL BASIS 2  0 40.343 0
Info: PERIODIC CELL BASIS 3  0 0 44.319
Info: PERIODIC CELL CENTER   0 0 0
Info: WRAPPING WATERS AROUND PERIODIC BOUNDARIES ON OUTPUT.
Info: WRAPPING ALL CLUSTERS AROUND PERIODIC BOUNDARIES ON OUTPUT.
Info: FIRST LDB TIMESTEP     50
Info: LAST LDB TIMESTEP     -1
Info: HOM BACKGROUND SCALING 1
Info: PME BACKGROUND SCALING 1
Info: MIN ATOMS PER PATCH    40
Info: EMPTY PATCH LOAD       40 ATOMS
Info: INITIAL TEMPERATURE    300
Info: CENTER OF MASS MOVING INITIALLY? NO
Info: DIELECTRIC             1
Info: EXCLUDE                SCALED ONE-FOUR
Info: 1-4 ELECTROSTATICS SCALED BY 0.833333
Info: MODIFIED 1-4 VDW PARAMETERS WILL BE USED
Info: DCD FILENAME           mobley_7463799_equil.dcd
Info: DCD FREQUENCY          5000
Info: DCD FIRST STEP         5000
Info: DCD FILE WILL CONTAIN UNIT CELL DATA
Info: XST FILENAME           mobley_7463799_equil.xst
Info: XST FREQUENCY          5000
Info: NO VELOCITY DCD OUTPUT
Info: NO FORCE DCD OUTPUT
Info: OUTPUT FILENAME        mobley_7463799_equil
Info: BINARY OUTPUT FILES WILL BE USED
Info: RESTART FILENAME       mobley_7463799_equil.restart
Info: RESTART FREQUENCY      5000
Info: BINARY RESTART FILES WILL BE USED
Info: CUTOFF                 9
Info: PAIRLIST DISTANCE      11
Info: PAIRLIST SHRINK RATE   0.01
Info: PAIRLIST GROW RATE     0.01
Info: PAIRLIST TRIGGER       0.3
Info: PAIRLISTS PER CYCLE    2
Info: PAIRLISTS ENABLED
Info: MARGIN                 8
Info: HYDROGEN GROUP CUTOFF  2.5
Info: PATCH DIMENSION        21.5
Info: ENERGY OUTPUT STEPS    5000
Info: ENERGY EVALUATION STEPS    5000
Info: OUTPUT ENERGY PRECISION 4
Info: CROSSTERM ENERGY INCLUDED IN DIHEDRAL
Info: TIMING OUTPUT STEPS    50000
Info: PRESSURE OUTPUT STEPS  5000
Info: LANGEVIN DYNAMICS ACTIVE
Info: LANGEVIN TEMPERATURE   30
Info: LANGEVIN USING BBK INTEGRATOR
Info: LANGEVIN DAMPING COEFFICIENT IS 1 INVERSE PS
Info: LANGEVIN DYNAMICS APPLIED TO HYDROGENS
Info: LANGEVIN PISTON PRESSURE CONTROL ACTIVE
Info:        TARGET PRESSURE IS 1.01325 BAR
Info:     OSCILLATION PERIOD IS 50 FS
Info:             DECAY TIME IS 25 FS
Info:     PISTON TEMPERATURE IS 300 K
Info:       PRESSURE CONTROL IS GROUP-BASED
Info:    INITIAL STRAIN RATE IS 0 0 0
Info:       CELL FLUCTUATION IS ISOTROPIC
Info: PARTICLE MESH EWALD (PME) ACTIVE
Info: PME TOLERANCE               1e-06
Info: PME EWALD COEFFICIENT       0.348832
Info: PME INTERPOLATION ORDER     4
Info: PME GRID DIMENSIONS         40 44 48
Info: PME MAXIMUM GRID SPACING    1
Info: FULL ELECTROSTATIC EVALUATION FREQUENCY      2
Info: USING VERLET I (r-RESPA) MTS SCHEME.
Info: C1 SPLITTING OF LONG RANGE ELECTROSTATICS
Info: PLACING ATOMS IN PATCHES BY HYDROGEN GROUPS
Info: RIGID BONDS TO HYDROGEN : ALL
Info:         ERROR TOLERANCE : 1e-08
Info:          MAX ITERATIONS : 100
Info: RIGID WATER USING SETTLE ALGORITHM
Info: RANDOM NUMBER SEED     1741388603
Info: USE HYDROGEN BONDS?    NO
Info: Using AMBER format force field!
Info: AMBER PARM FILE        mobley_7463799.prmtop
Info: COORDINATE PDB         mobley_7463799.pdb
Info: Exclusions will be read from PARM file!
Info: SCNB (VDW SCALING)     2
Info: USING ARITHMETIC MEAN TO COMBINE L-J SIGMA PARAMETERS
Info: BINARY COORDINATES     mobley_7463799_min.coor
Info: SUMMARY OF PARAMETERS:
Info: 10 BONDS
Info: 13 ANGLES
Info:   13 HARMONIC
Info:   0 COSINE-BASED
Info: 11 DIHEDRAL
Info: 0 IMPROPER
Info: 0 CROSSTERM
Info: 0 VDW
Info: 45 VDW_PAIRS
Info: 0 NBTHOLE_PAIRS
Info: STRUCTURE SUMMARY:
Info: 5161 ATOMS
Info: 5161 BONDS
Info: 37 ANGLES
Info: 57 DIHEDRALS
Info: 0 IMPROPERS
Info: 0 CROSSTERMS
Info: 5246 EXCLUSIONS
Info: 5151 RIGID BONDS
Info: 10332 DEGREES OF FREEDOM
Info: 1723 HYDROGEN GROUPS
Info: 3 ATOMS IN LARGEST HYDROGEN GROUP
Info: 1723 MIGRATION GROUPS
Info: 3 ATOMS IN LARGEST MIGRATION GROUP
Info: TOTAL MASS = 30997.6 amu
Info: TOTAL CHARGE = -5.58794e-08 e
Info: MASS DENSITY = 0.723237 g/cm^3
Info: ATOM DENSITY = 0.0725149 atoms/A^3
Info: ADDED 0 IMPLICIT EXCLUSIONS
Info: NONBONDED TABLE R-SQUARED SPACING: 0.0625
Info: NONBONDED TABLE SIZE: 705 POINTS
Info: REMOVING COM VELOCITY 0.0285425 0.0904373 -0.0521097
TCL: Running for 25000 steps
ETITLE: TS BOND ANGLE DIHED IMPRP ELECT VDW BOUNDARY MISC KINETIC TOTAL TEMP POTENTIAL TOTAL3 TEMPAVG PRESSURE GPRESSURE VOLUME PRESSAVG GPRESSAVG
ENERGY: 0 0.2220 0.3396 1.0523 0.0000 -23636.7749 4064.2730 0.0000 0.0000 3065.1569 -16505.7310 298.5786 -19570.8879 -16505.1349 298.5786 245.7617 278.7991 71171.5922 245.7617 278.7991
ENERGY: 5000 0.7889 1.1806 1.3135 0.0000 -24778.0302 4315.3334 0.0000 0.0000 310.8801 -20148.5337 30.2830 -20459.4138 -20148.0511 47.6954 123.2671 193.3574 50054.4981 -0.4499 -0.4347
ENERGY: 10000 0.6574 0.9357 1.4730 0.0000 -24718.8021 4204.5631 0.0000 0.0000 308.6736 -20202.4992 30.0681 -20511.1729 -20201.7211 30.2417 -560.1869 -508.1707 50302.2035 8.7932 8.9233
ENERGY: 15000 0.8661 1.1293 1.2581 0.0000 -24771.4103 4238.7013 0.0000 0.0000 306.9225 -20222.5330 29.8975 -20529.4555 -20221.7270 29.8813 -406.7260 -345.3919 50182.7961 3.4674 3.3476
ENERGY: 20000 0.3864 1.0133 1.0968 0.0000 -24906.3144 4362.8588 0.0000 0.0000 302.1508 -20238.8082 29.4327 -20540.9591 -20237.9111 30.0032 218.6848 279.2043 49818.0284 6.8674 7.0064
ENERGY: 25000 0.2568 0.7595 1.3022 0.0000 -24967.6354 4418.4439 0.0000 0.0000 303.2962 -20243.5768 29.5442 -20546.8730 -20242.8500 30.0223 497.0369 560.2220 49821.8687 5.5936 5.6375
TCL: Running 25000 steps at 60 kelvin.
TCL: Setting parameter langevinTemp to 60
TCL: Running for 25000 steps
ETITLE: TS BOND ANGLE DIHED IMPRP ELECT VDW BOUNDARY MISC KINETIC TOTAL TEMP POTENTIAL TOTAL3 TEMPAVG PRESSURE GPRESSURE VOLUME PRESSAVG GPRESSAVG
ENERGY: 25000 0.2568 0.7595 1.3022 0.0000 -24967.6354 4418.4439 0.0000 0.0000 303.1395 -20243.7334 29.5290 -20546.8730 -20243.2168 29.5290 511.1963 560.3563 49821.8687 511.1963 560.3563
ENERGY: 30000 0.8487 1.3855 1.5732 0.0000 -24419.5614 4159.2849 0.0000 0.0000 606.3045 -19650.1647 59.0604 -20256.4691 -19648.5773 56.8015 -65.1032 -21.3864 50111.7847 -6.0382 -5.9985
ENERGY: 35000 0.5313 1.2832 1.5940 0.0000 -24373.0427 4068.5319 0.0000 0.0000 630.9862 -19670.1161 61.4647 -20301.1024 -19669.0644 60.4261 -721.4079 -643.5641 50442.1573 4.5348 4.5856
ENERGY: 40000 1.1789 1.4618 1.7891 0.0000 -24633.3067 4313.6861 0.0000 0.0000 621.0174 -19694.1734 60.4936 -20315.1907 -19692.5419 60.5059 502.8281 552.9888 50046.0439 4.1244 3.9954
ENERGY: 45000 0.4101 1.1910 1.6148 0.0000 -24684.5309 4326.2753 0.0000 0.0000 623.3398 -19731.6997 60.7199 -20355.0395 -19730.2425 60.3100 570.9257 660.5750 49869.6655 5.7955 5.7680
ENERGY: 50000 0.3531 1.1023 1.5699 0.0000 -24597.1550 4213.0106 0.0000 0.0000 611.9014 -19769.2177 59.6056 -20381.1191 -19767.3530 60.2798 -52.4174 -9.3243 49984.0951 5.3634 4.9370
TCL: Running 25000 steps at 90 kelvin.
TCL: Setting parameter langevinTemp to 90
TCL: Running for 25000 steps
ETITLE: TS BOND ANGLE DIHED IMPRP ELECT VDW BOUNDARY MISC KINETIC TOTAL TEMP POTENTIAL TOTAL3 TEMPAVG PRESSURE GPRESSURE VOLUME PRESSAVG GPRESSAVG
ENERGY: 50000 0.3531 1.1023 1.5699 0.0000 -24597.1550 4213.0106 0.0000 0.0000 611.5978 -19769.5213 59.5761 -20381.1191 -19768.3868 59.5761 -50.5816 -8.9242 49984.0951 -50.5816 -8.9242
ENERGY: 55000 1.1495 2.8899 1.2313 0.0000 -24250.9056 4175.7171 0.0000 0.0000 931.5131 -19138.4047 90.7392 -20069.9178 -19136.1802 87.4953 437.8816 500.3932 50089.5208 4.5444 4.6524
ENERGY: 60000 1.8150 2.0610 1.8255 0.0000 -23973.9130 3876.7065 0.0000 0.0000 942.9117 -19148.5933 91.8495 -20091.5050 -19145.9119 90.3880 -1206.6122 -1172.1956 50842.2626 2.9493 2.7207
ENERGY: 65000 0.4706 3.1426 1.7183 0.0000 -24306.2730 4156.1052 0.0000 0.0000 929.5733 -19215.2630 90.5502 -20144.8363 -19213.1770 90.5846 200.9801 244.5769 50198.5272 4.1099 4.1981
ENERGY: 70000 0.9906 2.7908 2.5640 0.0000 -24503.8573 4334.7326 0.0000 0.0000 926.1891 -19236.5903 90.2206 -20162.7793 -19234.2434 90.2806 955.9462 1014.2066 50158.5608 5.0638 5.1076
ENERGY: 75000 0.8642 1.6359 1.8522 0.0000 -24326.2146 4153.7380 0.0000 0.0000 938.9716 -19229.1526 91.4657 -20168.1242 -19226.5999 89.8157 41.0177 120.4727 50269.9981 3.9093 3.7256
TCL: Running 25000 steps at 120 kelvin.
TCL: Setting parameter langevinTemp to 120
TCL: Running for 25000 steps
ETITLE: TS BOND ANGLE DIHED IMPRP ELECT VDW BOUNDARY MISC KINETIC TOTAL TEMP POTENTIAL TOTAL3 TEMPAVG PRESSURE GPRESSURE VOLUME PRESSAVG GPRESSAVG
ENERGY: 75000 0.8642 1.6359 1.8522 0.0000 -24326.2146 4153.7380 0.0000 0.0000 938.5019 -19229.6223 91.4200 -20168.1242 -19228.0607 91.4200 60.5508 120.2001 50269.9981 60.5508 120.2001
ENERGY: 80000 1.0856 4.4678 1.9471 0.0000 -23860.0586 4047.3157 0.0000 0.0000 1245.0945 -18560.1479 121.2853 -19805.2424 -18557.1141 116.9608 429.0798 469.6371 50162.2865 6.8164 6.8884
ENERGY: 85000 3.3113 2.9611 1.7557 0.0000 -23684.7365 3873.2091 0.0000 0.0000 1250.0936 -18553.4057 121.7723 -19803.4992 -18550.1835 119.7079 -535.1883 -449.1502 50375.4800 4.1390 4.4139
ENERGY: 90000 0.8114 3.8273 1.6239 0.0000 -23699.0347 3852.7397 0.0000 0.0000 1243.0811 -18596.9513 121.0892 -19840.0324 -18593.8090 120.4481 -563.2467 -511.9624 50325.3892 2.7841 2.2317
ENERGY: 95000 2.1518 3.1597 2.2747 0.0000 -23915.7621 4020.2859 0.0000 0.0000 1266.8518 -18621.0381 123.4047 -19887.8899 -18616.7214 120.1544 66.8939 144.6002 50119.1215 1.3252 1.3490
ENERGY: 100000 0.8809 3.3363 2.4573 0.0000 -23936.5510 4043.1073 0.0000 0.0000 1245.0183 -18641.7510 121.2779 -19886.7692 -18639.3905 119.7734 180.6405 253.2998 50183.7751 1.5870 1.3308
TCL: Running 25000 steps at 150 kelvin.
TCL: Setting parameter langevinTemp to 150
TCL: Running for 25000 steps
ETITLE: TS BOND ANGLE DIHED IMPRP ELECT VDW BOUNDARY MISC KINETIC TOTAL TEMP POTENTIAL TOTAL3 TEMPAVG PRESSURE GPRESSURE VOLUME PRESSAVG GPRESSAVG
ENERGY: 100000 0.8809 3.3363 2.4573 0.0000 -23936.5510 4043.1073 0.0000 0.0000 1244.3906 -18642.3786 121.2168 -19886.7692 -18640.0393 121.2168 200.1688 252.8339 50183.7751 200.1688 252.8339
ENERGY: 105000 2.0260 5.9452 2.2979 0.0000 -23334.9009 3825.5618 0.0000 0.0000 1518.4522 -17980.6178 147.9133 -19499.0701 -17977.0172 145.7732 -57.9029 -12.8445 50606.9367 2.7424 2.3530
ENERGY: 110000 2.5552 4.6832 2.0546 0.0000 -23390.7229 3805.1373 0.0000 0.0000 1550.6312 -18025.6615 151.0478 -19576.2927 -18021.6300 150.9140 -418.7829 -369.9383 50523.4346 5.9473 5.3701
ENERGY: 115000 2.9174 5.5091 2.5978 0.0000 -23286.0319 3690.5686 0.0000 0.0000 1552.1011 -18032.3379 151.1910 -19584.4390 -18028.8350 149.3379 -911.2248 -869.0083 50622.0142 2.8369 3.3258
ENERGY: 120000 1.5139 4.0483 2.9182 0.0000 -23402.3654 3856.5167 0.0000 0.0000 1573.8477 -17963.5206 153.3094 -19537.3684 -17961.0103 150.4539 30.4689 87.1457 50423.8547 4.7523 4.8146
ENERGY: 125000 2.1573 4.4600 2.9238 0.0000 -23338.0548 3728.0611 0.0000 0.0000 1521.5627 -18078.8898 148.2163 -19600.4526 -18075.2942 149.8506 -800.9086 -738.9718 50550.3989 6.5794 6.1896
TCL: Running 50000 steps at 180 kelvin.
TCL: Setting parameter langevinTemp to 180
TCL: Running for 50000 steps
ETITLE: TS BOND ANGLE DIHED IMPRP ELECT VDW BOUNDARY MISC KINETIC TOTAL TEMP POTENTIAL TOTAL3 TEMPAVG PRESSURE GPRESSURE VOLUME PRESSAVG GPRESSAVG
ENERGY: 125000 2.1573 4.4600 2.9238 0.0000 -23338.0548 3728.0611 0.0000 0.0000 1520.7950 -18079.6576 148.1415 -19600.4526 -18076.1797 148.1415 -803.2695 -739.0720 50550.3989 -803.2695 -739.0720
ENERGY: 135000 1.8456 5.6729 2.8123 0.0000 -22578.1368 3426.9546 0.0000 0.0000 1832.2334 -17308.6179 178.4789 -19140.8513 -17301.3868 180.7604 -1346.1727 -1268.6933 51147.6437 1.0488 0.8920
ENERGY: 145000 0.9526 4.8254 2.2386 0.0000 -22915.2583 3726.0532 0.0000 0.0000 1891.6657 -17289.5228 184.2682 -19181.1885 -17286.1199 178.9494 159.3358 226.9196 50552.9413 2.5087 2.8818
ENERGY: 155000 2.7106 6.2293 3.5268 0.0000 -22843.3070 3652.7094 0.0000 0.0000 1800.4779 -17377.6531 175.3855 -19178.1310 -17373.6438 180.1624 -261.0270 -206.0625 50575.4619 3.3551 3.1203
ENERGY: 165000 1.6704 4.8520 2.6143 0.0000 -22895.9477 3735.2152 0.0000 0.0000 1855.9459 -17295.6499 180.7887 -19151.5958 -17291.3747 180.2402 315.6267 365.3426 50381.9271 -3.5271 -3.7047
ENERGY: 175000 1.9091 3.1093 2.9384 0.0000 -23096.7223 3919.9610 0.0000 0.0000 1826.8452 -17341.9592 177.9540 -19168.8044 -17336.7293 181.4001 1036.3582 1099.7252 50385.7325 -1.0134 -1.1514
TCL: Running 50000 steps at 210 kelvin.
TCL: Setting parameter langevinTemp to 210
TCL: Running for 50000 steps
ETITLE: TS BOND ANGLE DIHED IMPRP ELECT VDW BOUNDARY MISC KINETIC TOTAL TEMP POTENTIAL TOTAL3 TEMPAVG PRESSURE GPRESSURE VOLUME PRESSAVG GPRESSAVG
ENERGY: 175000 1.9091 3.1093 2.9384 0.0000 -23096.7223 3919.9610 0.0000 0.0000 1825.8875 -17342.9169 177.8607 -19168.8044 -17339.9897 177.8607 1034.9904 1101.0111 50385.7325 1034.9904 1101.0111
ENERGY: 185000 5.8269 3.6418 4.8836 0.0000 -21767.3179 3326.2192 0.0000 0.0000 2098.7930 -16327.9533 204.4446 -18426.7463 -16324.0564 210.5755 -344.8607 -259.6463 50715.6009 6.9817 7.4748
ENERGY: 195000 1.7108 7.1409 4.2327 0.0000 -21809.6236 3464.7915 0.0000 0.0000 2173.7840 -16157.9637 211.7495 -18331.7477 -16154.7369 210.8104 724.5444 786.2595 50423.0057 3.8201 4.0356
ENERGY: 205000 1.6744 3.6647 2.2039 0.0000 -21869.6788 3466.5643 0.0000 0.0000 2152.3522 -16243.2193 209.6618 -18395.5714 -16238.2056 212.6256 1031.2984 1071.2023 49397.6203 4.2211 4.1035
ENERGY: 215000 2.5517 4.5381 3.1857 0.0000 -21630.8580 3232.9276 0.0000 0.0000 2109.7970 -16277.8580 205.5165 -18387.6549 -16273.2089 210.5404 -461.1384 -408.9101 50314.1828 4.2118 4.6621
ENERGY: 225000 3.8856 4.0306 4.2237 0.0000 -21625.2415 3256.6163 0.0000 0.0000 2138.1485 -16218.3370 208.2782 -18356.4855 -16213.6741 211.7084 -286.8434 -186.8114 50313.1108 6.0998 5.5754
TCL: Running 50000 steps at 240 kelvin.
TCL: Setting parameter langevinTemp to 240
TCL: Running for 50000 steps
ETITLE: TS BOND ANGLE DIHED IMPRP ELECT VDW BOUNDARY MISC KINETIC TOTAL TEMP POTENTIAL TOTAL3 TEMPAVG PRESSURE GPRESSURE VOLUME PRESSAVG GPRESSAVG
ENERGY: 225000 3.8856 4.0306 4.2237 0.0000 -21625.2415 3256.6163 0.0000 0.0000 2137.0828 -16219.4027 208.1744 -18356.4855 -16215.4372 208.1744 -265.3177 -186.1158 50313.1108 -265.3177 -186.1158
ENERGY: 235000 1.2031 7.4754 4.6140 0.0000 -20595.8252 2962.8176 0.0000 0.0000 2429.5630 -15190.1522 236.6651 -17619.7152 -15185.3227 240.3720 -306.9941 -258.8122 51278.3604 -1.0169 -1.4587
ENERGY: 245000 2.3613 4.5068 2.9905 0.0000 -20731.3536 3021.2092 0.0000 0.0000 2485.9385 -15214.3472 242.1566 -17700.2858 -15207.4894 240.7843 52.1201 147.2232 50403.8963 4.7655 4.8956
ENERGY: 255000 3.9977 5.3833 2.2214 0.0000 -20532.4396 2954.1474 0.0000 0.0000 2429.1654 -15137.5245 236.6263 -17566.6898 -15135.3933 239.9032 -74.4501 22.9475 50803.0936 1.1998 1.3878
ENERGY: 265000 3.1385 8.6921 3.0723 0.0000 -20727.7556 3004.0565 0.0000 0.0000 2515.3849 -15193.4113 245.0250 -17708.7963 -15185.8571 241.1063 -340.3679 -272.7799 51175.9940 0.7029 0.4526
ENERGY: 275000 2.2241 2.9410 3.0368 0.0000 -20497.2584 2920.1455 0.0000 0.0000 2461.3530 -15107.5579 239.7617 -17568.9110 -15099.8981 240.4109 -378.9755 -293.9008 51200.5888 1.2438 1.0192
TCL: Running 50000 steps at 270 kelvin.
TCL: Setting parameter langevinTemp to 270
TCL: Running for 50000 steps
ETITLE: TS BOND ANGLE DIHED IMPRP ELECT VDW BOUNDARY MISC KINETIC TOTAL TEMP POTENTIAL TOTAL3 TEMPAVG PRESSURE GPRESSURE VOLUME PRESSAVG GPRESSAVG
ENERGY: 275000 2.2241 2.9410 3.0368 0.0000 -20497.2584 2920.1455 0.0000 0.0000 2460.1556 -15108.7553 239.6451 -17568.9110 -15105.0325 239.6451 -386.5196 -292.9091 51200.5888 -386.5196 -292.9091
ENERGY: 285000 3.9085 10.4924 1.9397 0.0000 -19749.3721 2856.9837 0.0000 0.0000 2756.1214 -14119.9264 268.4753 -16876.0478 -14118.2324 270.0515 770.0116 848.5910 50794.9344 7.1799 7.1853
ENERGY: 295000 1.9822 5.3638 4.3628 0.0000 -19528.1950 2662.3106 0.0000 0.0000 2747.8943 -14106.2813 267.6739 -16854.1756 -14099.7963 270.2798 -435.3894 -360.8068 52171.5324 -0.0783 -0.1853
ENERGY: 305000 1.9856 8.4394 2.6318 0.0000 -19728.1826 2787.6267 0.0000 0.0000 2814.4269 -14113.0721 274.1549 -16927.4991 -14108.8933 268.4783 257.0161 337.9655 51255.3650 2.1418 2.1816
ENERGY: 315000 5.1899 11.5203 4.7130 0.0000 -19549.1381 2731.1601 0.0000 0.0000 2818.7398 -13977.8151 274.5750 -16796.5548 -13967.6487 269.5436 33.0139 116.7018 52114.3682 1.5862 1.1176
ENERGY: 325000 4.3092 7.2409 4.2408 0.0000 -19633.5396 2701.8089 0.0000 0.0000 2766.9388 -14149.0009 269.5290 -16915.9397 -14140.7015 270.2969 -493.5610 -351.9125 52329.2906 4.3126 4.4186
TCL: Running 1000000 steps at 300 kelvin.
TCL: Setting parameter langevinTemp to 300
TCL: Running for 1000000 steps
ETITLE: TS BOND ANGLE DIHED IMPRP ELECT VDW BOUNDARY MISC KINETIC TOTAL TEMP POTENTIAL TOTAL3 TEMPAVG PRESSURE GPRESSURE VOLUME PRESSAVG GPRESSAVG
ENERGY: 325000 4.3092 7.2409 4.2408 0.0000 -19633.5396 2701.8089 0.0000 0.0000 2765.5934 -14150.3463 269.3980 -16915.9397 -14146.0383 269.3980 -435.0018 -349.5521 52329.2906 -435.0018 -349.5521
ENERGY: 525000 4.7371 5.3540 4.7172 0.0000 -18731.7695 2524.5921 0.0000 0.0000 3049.0953 -13143.2739 297.0140 -16192.3691 -13139.9031 298.9923 -168.8618 -101.0341 53709.4705 -1.7024 -1.8202
ENERGY: 725000 4.0325 8.2927 6.0594 0.0000 -18785.5693 2590.4069 0.0000 0.0000 3126.0910 -13050.6868 304.5142 -16176.7778 -13044.3789 300.7934 111.7247 165.8323 53856.7833 3.7029 3.3413
ENERGY: 925000 0.7689 7.4339 7.7952 0.0000 -18814.4133 2588.1867 0.0000 0.0000 3026.9864 -13183.2422 294.8604 -16210.2286 -13179.0456 299.1841 -71.5897 72.6013 53969.5710 2.2371 2.5386
ENERGY: 1125000 1.5496 4.3005 4.1294 0.0000 -18865.8004 2566.0004 0.0000 0.0000 3130.6032 -13159.2173 304.9538 -16289.8205 -13151.7865 298.9045 126.4087 172.1369 53118.0832 4.7970 4.7376
ENERGY: 1325000 2.8216 6.4375 3.6956 0.0000 -18855.2937 2594.5839 0.0000 0.0000 3148.7014 -13099.0537 306.7167 -16247.7552 -13094.5821 299.2749 385.6050 473.8209 52918.4322 5.4530 6.0558
TCL: Exiting due to exit command.
