Info: SIMULATION PARAMETERS:
Info: TIMESTEP               2
Info: NUMBER OF STEPS        0
Info: STEPS PER CYCLE        10
Info: PERIODIC CELL BASIS 1  32.2233 0 0
Info: PERIODIC CELL BASIS 2  0 30.5536 0
Info: PERIODIC CELL BASIS 3  0 0 30.5395
Info: PERIODIC CELL CENTER   0 0 0
Info: WRAPPING WATERS AROUND PERIODIC BOUNDARIES ON OUTPUT.
Info: WRAPPING ALL CLUSTERS AROUND PERIODIC BOUNDARIES ON OUTPUT.
Info: FIRST LDB TIMESTEP     50
Info: LAST LDB TIMESTEP     -1
Info: HOM BACKGROUND SCALING 1
Info: PME BACKGROUND SCALING 1
Info: MIN ATOMS PER PATCH    40
Info: EMPTY PATCH LOAD       40 ATOMS
Info: VELOCITY FILE          mobley_1800170_equil.vel
Info: CENTER OF MASS MOVING INITIALLY? NO
Info: DIELECTRIC             1
Info: EXCLUDE                SCALED ONE-FOUR
Info: 1-4 ELECTROSTATICS SCALED BY 0.833333
Info: MODIFIED 1-4 VDW PARAMETERS WILL BE USED
Info: DCD FILENAME           mobley_1800170_prod.dcd
Info: DCD FREQUENCY          100000
Info: DCD FIRST STEP         100000
Info: DCD FILE WILL CONTAIN UNIT CELL DATA
Info: XST FILENAME           mobley_1800170_prod.xst
Info: XST FREQUENCY          100000
Info: NO VELOCITY DCD OUTPUT
Info: NO FORCE DCD OUTPUT
Info: OUTPUT FILENAME        mobley_1800170_prod
Info: BINARY OUTPUT FILES WILL BE USED
Info: RESTART FILENAME       mobley_1800170_prod.restart
Info: RESTART FREQUENCY      100000
Info: BINARY RESTART FILES WILL BE USED
Info: CUTOFF                 9
Info: PAIRLIST DISTANCE      11
Info: PAIRLIST SHRINK RATE   0.01
Info: PAIRLIST GROW RATE     0.01
Info: PAIRLIST TRIGGER       0.3
Info: PAIRLISTS PER CYCLE    2
Info: PAIRLISTS ENABLED
Info: MARGIN                 2
Info: HYDROGEN GROUP CUTOFF  2.5
Info: PATCH DIMENSION        15.5
Info: ENERGY OUTPUT STEPS    100000
Info: ENERGY EVALUATION STEPS    100000
Info: OUTPUT ENERGY PRECISION 4
Info: CROSSTERM ENERGY INCLUDED IN DIHEDRAL
Info: TIMING OUTPUT STEPS    1000000
Info: PRESSURE OUTPUT STEPS  100000
Info: ALCHEMICAL FEP ON
Info: FEP CURRENT LAMBDA VALUE     0
Info: FEP COMPARISON LAMBDA VALUE  0.05
Info: FEP INTRA-ALCHEMICAL NON-BONDED INTERACTIONS WILL BE RETAINED
Info: FEP INTRA-ALCHEMICAL BONDED INTERACTIONS WILL BE RETAINED
Info: FEP VDW SHIFTING COEFFICIENT 5
Info: FEP ELEC. ACTIVE FOR ANNIHILATED PARTICLES BETWEEN LAMBDA = 0 AND LAMBDA = 0.5
Info: FEP ELEC. ACTIVE FOR EXNIHILATED PARTICLES BETWEEN LAMBDA = 0.5 AND LAMBDA = 1
Info: FEP VDW ACTIVE FOR ANNIHILATED PARTICLES BETWEEN LAMBDA = 0 AND LAMBDA = 1
Info: FEP VDW ACTIVE FOR EXNIHILATED PARTICLES BETWEEN LAMBDA = 0 AND LAMBDA = 1
Info: FEP BOND ACTIVE FOR ANNIHILATED PARTICLES BETWEEN LAMBDA = 1 AND LAMBDA = 1
Info: FEP BOND ACTIVE FOR EXNIHILATED PARTICLES BETWEEN LAMBDA = 0 AND LAMBDA = 0
Info: LANGEVIN DYNAMICS ACTIVE
Info: LANGEVIN TEMPERATURE   300
Info: LANGEVIN USING BBK INTEGRATOR
Info: LANGEVIN DAMPING COEFFICIENT IS 1 INVERSE PS
Info: LANGEVIN DYNAMICS APPLIED TO HYDROGENS
Info: LANGEVIN PISTON PRESSURE CONTROL ACTIVE
Info:        TARGET PRESSURE IS 1.01325 BAR
Info:     OSCILLATION PERIOD IS 50 FS
Info:             DECAY TIME IS 25 FS
Info:     PISTON TEMPERATURE IS 300 K
Info:       PRESSURE CONTROL IS GROUP-BASED
Info:    INITIAL STRAIN RATE IS 0.000338369 0.000338369 0.000338369
Info:       CELL FLUCTUATION IS ISOTROPIC
Info: PARTICLE MESH EWALD (PME) ACTIVE
Info: PME TOLERANCE               1e-06
Info: PME EWALD COEFFICIENT       0.348832
Info: PME INTERPOLATION ORDER     4
Info: PME GRID DIMENSIONS         36 32 32
Info: PME MAXIMUM GRID SPACING    1
Info: PME CALCULATION WILL BE PERFORMED ON GPU
Info: FULL ELECTROSTATIC EVALUATION FREQUENCY      2
Info: USING VERLET I (r-RESPA) MTS SCHEME.
Info: C1 SPLITTING OF LONG RANGE ELECTROSTATICS
Info: PLACING ATOMS IN PATCHES BY HYDROGEN GROUPS
Info: RIGID BONDS TO HYDROGEN : ALL
Info:         ERROR TOLERANCE : 1e-08
Info:          MAX ITERATIONS : 100
Info: RIGID WATER USING SETTLE ALGORITHM
Info: RANDOM NUMBER SEED     1742416761
Info: USE HYDROGEN BONDS?    NO
Info: Using AMBER format force field!
Info: AMBER PARM FILE        mobley_1800170.prmtop
Info: COORDINATE PDB         mobley_1800170.pdb
Info: Exclusions will be read from PARM file!
Info: SCNB (VDW SCALING)     2
Info: USING ARITHMETIC MEAN TO COMBINE L-J SIGMA PARAMETERS
Info: BINARY COORDINATES     mobley_1800170_equil.coor
Info: SUMMARY OF PARAMETERS:
Info: 7 BONDS
Info: 7 ANGLES
Info:   7 HARMONIC
Info:   0 COSINE-BASED
Info: 3 DIHEDRAL
Info: 0 IMPROPER
Info: 0 CROSSTERM
Info: 0 VDW
Info: 28 VDW_PAIRS
Info: 0 NBTHOLE_PAIRS
Info: To read alchdata from file: mobley_1800170.pdb
Info: To read alchflag data from column: 5
Info: STRUCTURE SUMMARY:
Info: 2931 ATOMS
Info: 2930 BONDS
Info: 13 ANGLES
Info: 12 DIHEDRALS
Info: 0 IMPROPERS
Info: 0 CROSSTERMS
Info: 2955 EXCLUSIONS
Info: 2928 RIGID BONDS
Info: ALCH: 0 ATOMS TO DISAPPEAR IN FINAL STATE
Info: ALCH: 9 ATOMS TO APPEAR IN FINAL STATE
Info: 5865 DEGREES OF FREEDOM
Info: 977 HYDROGEN GROUPS
Info: 4 ATOMS IN LARGEST HYDROGEN GROUP
Info: 977 MIGRATION GROUPS
Info: 4 ATOMS IN LARGEST MIGRATION GROUP
Info: TOTAL MASS = 17609.7 amu
Info: TOTAL CHARGE = 1.58325e-08 e
Info: MASS DENSITY = 0.972562 g/cm^3
Info: ATOM DENSITY = 0.0974814 atoms/A^3
Info: ADDED 0 IMPLICIT EXCLUSIONS
Info: NONBONDED TABLE R-SQUARED SPACING: 0.0625
Info: NONBONDED TABLE SIZE: 705 POINTS
Info: REMOVING COM VELOCITY -0.0304988 -0.100145 0.0718534
Info: Use 3D box decompostion in PME FFT.
Info: Updated CUDA force table with 4096 elements.
Info: Updated CUDA LJ table with 7 x 7 elements.
Info: Found 12 unique exclusion lists needing 16 bytes
TCL: Running for 1500000 steps
ETITLE: TS BOND ANGLE DIHED IMPRP ELECT VDW BOUNDARY MISC KINETIC TOTAL TEMP POTENTIAL TOTALAVG TEMPAVG PRESSURE GPRESSURE VOLUME PRESSAVG GPRESSAVG
ENERGY: 0 1.2213 3.2739 1.0282 0.0000 -10541.2890 1423.2977 0.0000 0.0000 1731.5103 -7380.9576 297.1306 -9112.4679 -7380.9576 297.1306 9.0735 100.2972 30067.2898 9.0735 100.2972
ENERGY: 300000 0.1156 4.0095 0.3486 0.0000 -10659.1580 1462.9541 0.0000 0.0000 1740.8564 -7450.8738 298.7345 -9191.7302 -7429.9888 296.4121 374.9192 420.5525 29887.2191 69.2965 139.9810
ENERGY: 600000 0.4314 2.9619 0.6439 0.0000 -10669.7380 1495.0284 0.0000 0.0000 1799.4565 -7371.2159 308.7903 -9170.6724 -7423.0320 298.9750 878.0231 999.8843 29662.7924 33.0446 119.1804
ENERGY: 900000 0.2341 6.2957 0.4830 0.0000 -10655.4207 1459.7800 0.0000 0.0000 1751.5640 -7437.0639 300.5719 -9188.6279 -7440.0598 298.3847 99.3040 107.6749 30292.8510 -11.3133 60.0065
ENERGY: 1200000 0.1744 4.5349 0.6091 0.0000 -10700.6034 1488.9505 0.0000 0.0000 1710.2655 -7496.0691 293.4850 -9206.3345 -7436.3636 298.7896 111.1867 223.8416 30457.2756 -29.7940 40.6177
ENERGY: 1500000 1.4107 1.8862 1.1629 0.0000 -10497.0540 1347.2399 0.0000 0.0000 1749.8332 -7395.5211 300.2749 -9145.3543 -7445.3813 298.7511 -766.6952 -634.9457 30278.2222 -18.6837 59.6846
TCL: Running FEP window   2: Lambda1 0.05   Lambda2 0.1    [dLambda 0.05  ]
TCL: Setting parameter firsttimestep to 0
TCL: Setting parameter alchLambda to 0.05
Info: NONBONDED TABLE R-SQUARED SPACING: 0.0625
Info: NONBONDED TABLE SIZE: 705 POINTS
TCL: Setting parameter alchLambda2 to 0.1
Info: NONBONDED TABLE R-SQUARED SPACING: 0.0625
Info: NONBONDED TABLE SIZE: 705 POINTS
TCL: Running for 1500000 steps
ETITLE: TS BOND ANGLE DIHED IMPRP ELECT VDW BOUNDARY MISC KINETIC TOTAL TEMP POTENTIAL TOTALAVG TEMPAVG PRESSURE GPRESSURE VOLUME PRESSAVG GPRESSAVG
ENERGY: 0 1.4107 1.8862 1.1629 0.0000 -10497.0540 1348.6997 0.0000 0.0000 1748.9172 -7394.9773 300.1177 -9143.8945 -7394.9773 300.1177 -724.2262 -632.9672 30278.2222 -724.2262 -632.9672
ENERGY: 300000 0.6656 2.7946 1.0381 0.0000 -10785.3227 1492.5948 0.0000 0.0000 1784.4112 -7503.8184 306.2085 -9288.2296 -7444.6417 300.9223 213.9422 332.9401 29827.0283 -297.2636 -220.9486
ENERGY: 600000 0.0323 2.1957 0.8528 0.0000 -10560.5000 1382.4547 0.0000 0.0000 1760.9894 -7413.9751 302.1893 -9174.9644 -7435.2751 302.4989 -460.8755 -397.2854 30184.6183 -273.6348 -201.3935
ENERGY: 900000 0.0156 2.1108 0.9162 0.0000 -10703.5246 1514.0805 0.0000 0.0000 1810.4415 -7375.9599 310.6754 -9186.4013 -7435.1736 302.4125 727.7428 819.4798 29860.6214 -73.6209 1.6041
ENERGY: 1200000 0.1016 5.2611 0.1350 0.0000 -10579.1578 1375.7161 0.0000 0.0000 1766.5914 -7431.3527 303.1506 -9197.9440 -7430.8430 303.0031 -318.1390 -303.8851 29992.0544 -23.6564 47.6698
ENERGY: 1500000 0.9123 4.7383 0.2333 0.0000 -10609.9884 1479.2558 0.0000 0.0000 1712.1914 -7412.6573 293.8155 -9124.8487 -7438.3673 302.1537 555.0343 628.9713 30064.7928 22.8263 89.9309
TCL: Running FEP window   3: Lambda1 0.1    Lambda2 0.15000000000000002 [dLambda 0.05000000000000002]
TCL: Setting parameter firsttimestep to 0
TCL: Setting parameter alchLambda to 0.1
Info: NONBONDED TABLE R-SQUARED SPACING: 0.0625
Info: NONBONDED TABLE SIZE: 705 POINTS
TCL: Setting parameter alchLambda2 to 0.15000000000000002
Info: NONBONDED TABLE R-SQUARED SPACING: 0.0625
Info: NONBONDED TABLE SIZE: 705 POINTS
TCL: Running for 1500000 steps
ETITLE: TS BOND ANGLE DIHED IMPRP ELECT VDW BOUNDARY MISC KINETIC TOTAL TEMP POTENTIAL TOTALAVG TEMPAVG PRESSURE GPRESSURE VOLUME PRESSAVG GPRESSAVG
ENERGY: 0 0.9123 4.7383 0.2333 0.0000 -10609.9861 1480.8647 0.0000 0.0000 1711.3413 -7411.8963 293.6696 -9123.2376 -7411.8963 293.6696 542.7597 633.7531 30064.7928 542.7597 633.7531
ENERGY: 300000 0.4132 3.9732 0.2625 0.0000 -10611.8664 1470.0114 0.0000 0.0000 1750.7988 -7386.4073 300.4406 -9137.2061 -7426.3578 297.9744 278.3944 322.5488 30299.8095 243.9452 308.0705
ENERGY: 600000 0.8313 2.5481 0.2670 0.0000 -10535.6217 1346.4076 0.0000 0.0000 1764.8787 -7420.6889 302.8567 -9185.5677 -7455.8220 299.2777 -643.2468 -580.6041 30122.5355 266.2335 327.5742
ENERGY: 900000 0.1387 4.0380 0.0540 0.0000 -10752.4993 1502.0059 0.0000 0.0000 1770.6034 -7475.6593 303.8391 -9246.2627 -7461.2327 299.1663 151.2697 252.3137 30259.5064 201.2403 271.2607
ENERGY: 1200000 0.3271 4.3587 0.4170 0.0000 -10545.6543 1333.9625 0.0000 0.0000 1777.9555 -7428.6336 305.1007 -9206.5890 -7458.5422 299.6049 -909.7183 -804.9277 30368.6280 43.7324 126.1962
ENERGY: 1500000 0.5407 2.8220 0.1776 0.0000 -10637.7946 1350.5110 0.0000 0.0000 1740.9371 -7542.8061 298.7483 -9283.7433 -7465.5241 299.9045 -943.8495 -834.1338 30078.8007 -27.0929 49.1871
TCL: Running FEP window   4: Lambda1 0.15000000000000002 Lambda2 0.2    [dLambda 0.04999999999999999]
TCL: Setting parameter firsttimestep to 0
TCL: Setting parameter alchLambda to 0.15000000000000002
Info: NONBONDED TABLE R-SQUARED SPACING: 0.0625
Info: NONBONDED TABLE SIZE: 705 POINTS
TCL: Setting parameter alchLambda2 to 0.2
Info: NONBONDED TABLE R-SQUARED SPACING: 0.0625
Info: NONBONDED TABLE SIZE: 705 POINTS
TCL: Running for 1500000 steps
ETITLE: TS BOND ANGLE DIHED IMPRP ELECT VDW BOUNDARY MISC KINETIC TOTAL TEMP POTENTIAL TOTALAVG TEMPAVG PRESSURE GPRESSURE VOLUME PRESSAVG GPRESSAVG
ENERGY: 0 0.5407 2.8220 0.1776 0.0000 -10637.7947 1352.0837 0.0000 0.0000 1740.0590 -7542.1117 298.5976 -9282.1707 -7542.1117 298.5976 -923.9420 -824.9575 30078.8007 -923.9420 -824.9575
ENERGY: 300000 0.4165 2.3524 0.1770 0.0000 -10556.2411 1397.0283 0.0000 0.0000 1741.7705 -7414.4964 298.8913 -9156.2669 -7468.6511 300.2215 -208.3613 -74.8753 30148.5258 -104.6191 -3.8797
ENERGY: 600000 0.5782 0.8928 0.0180 0.0000 -10600.0440 1424.0196 0.0000 0.0000 1789.5629 -7384.9725 307.0926 -9174.5355 -7454.9346 300.6548 -139.9829 -84.1027 30665.8879 -87.4183 -6.8958
ENERGY: 900000 0.3763 2.8166 0.5348 0.0000 -10595.0982 1423.7039 0.0000 0.0000 1737.9200 -7429.7465 298.2306 -9167.6666 -7454.2866 299.7603 237.7473 323.7159 29692.0685 -72.9982 -6.0825
ENERGY: 1200000 0.2425 4.7511 1.0671 0.0000 -10668.7514 1423.0468 0.0000 0.0000 1745.6431 -7494.0008 299.5559 -9239.6439 -7469.4921 299.6253 -148.9686 -84.6994 29951.9719 -15.5345 54.7825
ENERGY: 1500000 0.0342 3.9392 0.7176 0.0000 -10657.9744 1443.3915 0.0000 0.0000 1670.7050 -7539.1870 286.6963 -9209.8921 -7458.1595 299.3743 -266.9276 -135.1840 30590.2971 -7.1308 67.2741
TCL: Running FEP window   5: Lambda1 0.2    Lambda2 0.25   [dLambda 0.04999999999999999]
TCL: Setting parameter firsttimestep to 0
TCL: Setting parameter alchLambda to 0.2
Info: NONBONDED TABLE R-SQUARED SPACING: 0.0625
Info: NONBONDED TABLE SIZE: 705 POINTS
TCL: Setting parameter alchLambda2 to 0.25
Info: NONBONDED TABLE R-SQUARED SPACING: 0.0625
Info: NONBONDED TABLE SIZE: 705 POINTS
TCL: Running for 1500000 steps
ETITLE: TS BOND ANGLE DIHED IMPRP ELECT VDW BOUNDARY MISC KINETIC TOTAL TEMP POTENTIAL TOTALAVG TEMPAVG PRESSURE GPRESSURE VOLUME PRESSAVG GPRESSAVG
ENERGY: 0 0.0342 3.9392 0.7176 0.0000 -10657.9734 1444.5217 0.0000 0.0000 1669.8324 -7538.9284 286.5466 -9208.7608 -7538.9284 286.5466 -227.9337 -128.2494 30590.2971 -227.9337 -128.2494
ENERGY: 300000 0.1482 4.6048 1.0308 0.0000 -10604.4436 1404.0033 0.0000 0.0000 1737.4173 -7457.2392 298.1443 -9194.6565 -7505.7804 296.8229 -274.3486 -219.6093 30072.0832 -294.8345 -243.0654
ENERGY: 600000 0.7352 2.0006 0.4837 0.0000 -10603.5223 1434.3221 0.0000 0.0000 1752.2522 -7413.7286 300.6900 -9165.9808 -7469.7526 297.8049 327.0832 341.3920 29818.4349 22.4566 72.9001
ENERGY: 900000 1.1190 5.6144 0.2488 0.0000 -10674.5813 1480.8859 0.0000 0.0000 1829.7940 -7356.9191 313.9963 -9186.7131 -7448.7082 300.3430 350.1465 451.3952 30301.1562 163.1740 213.9278
ENERGY: 1200000 0.6125 3.7255 1.0605 0.0000 -10570.8369 1424.4826 0.0000 0.0000 1708.5244 -7432.4314 293.1862 -9140.9558 -7451.0215 299.4713 -184.5200 -102.8039 30477.3053 171.2070 230.8854
ENERGY: 1500000 0.3283 4.6571 0.6177 0.0000 -10762.5227 1452.6372 0.0000 0.0000 1791.5413 -7512.7412 307.4321 -9304.2825 -7451.4575 299.0562 63.5199 113.9923 29736.3833 176.1339 235.8757
TCL: Running FEP window   6: Lambda1 0.25   Lambda2 0.3    [dLambda 0.04999999999999999]
TCL: Setting parameter firsttimestep to 0
TCL: Setting parameter alchLambda to 0.25
Info: NONBONDED TABLE R-SQUARED SPACING: 0.0625
Info: NONBONDED TABLE SIZE: 705 POINTS
TCL: Setting parameter alchLambda2 to 0.3
Info: NONBONDED TABLE R-SQUARED SPACING: 0.0625
Info: NONBONDED TABLE SIZE: 705 POINTS
TCL: Running for 1500000 steps
ETITLE: TS BOND ANGLE DIHED IMPRP ELECT VDW BOUNDARY MISC KINETIC TOTAL TEMP POTENTIAL TOTALAVG TEMPAVG PRESSURE GPRESSURE VOLUME PRESSAVG GPRESSAVG
ENERGY: 0 0.3282 4.6571 0.6177 0.0000 -10762.5214 1452.2711 0.0000 0.0000 1790.6662 -7513.9811 307.2819 -9304.6473 -7513.9811 307.2819 29.3216 112.8245 29736.3833 29.3216 112.8245
ENERGY: 300000 0.1715 6.8077 0.8019 0.0000 -10598.2968 1403.8485 0.0000 0.0000 1776.9660 -7409.7013 304.9309 -9186.6674 -7438.1749 303.1742 -279.5758 -215.1897 30245.9327 289.6730 351.2454
ENERGY: 600000 0.4460 3.6432 0.7119 0.0000 -10556.6211 1368.2674 0.0000 0.0000 1700.8514 -7482.7013 291.8695 -9183.5527 -7451.3890 300.7714 -600.0557 -502.5197 30164.2511 -90.0537 -24.7624
ENERGY: 900000 0.3235 4.5851 0.5672 0.0000 -10749.0422 1484.8937 0.0000 0.0000 1680.5675 -7578.1052 288.3888 -9258.6727 -7454.6154 299.9822 57.1174 154.0822 30064.3270 108.3453 177.9196
ENERGY: 1200000 0.2945 2.7114 1.0330 0.0000 -10465.6400 1325.9427 0.0000 0.0000 1815.0897 -7320.5688 311.4730 -9135.6585 -7443.7222 299.8541 -416.0595 -387.9558 30028.1015 36.1196 102.3535
ENERGY: 1500000 0.2309 4.1076 0.3770 0.0000 -10653.9807 1478.1727 0.0000 0.0000 1748.2117 -7422.8809 299.9966 -9171.0926 -7445.2296 299.4237 443.2705 532.2597 29711.9108 56.0620 120.1937
TCL: Running FEP window   7: Lambda1 0.3    Lambda2 0.35   [dLambda 0.04999999999999999]
TCL: Setting parameter firsttimestep to 0
TCL: Setting parameter alchLambda to 0.3
Info: NONBONDED TABLE R-SQUARED SPACING: 0.0625
Info: NONBONDED TABLE SIZE: 705 POINTS
TCL: Setting parameter alchLambda2 to 0.35
Info: NONBONDED TABLE R-SQUARED SPACING: 0.0625
Info: NONBONDED TABLE SIZE: 705 POINTS
TCL: Running for 1500000 steps
ETITLE: TS BOND ANGLE DIHED IMPRP ELECT VDW BOUNDARY MISC KINETIC TOTAL TEMP POTENTIAL TOTALAVG TEMPAVG PRESSURE GPRESSURE VOLUME PRESSAVG GPRESSAVG
ENERGY: 0 0.2309 4.1075 0.3770 0.0000 -10653.9809 1477.8749 0.0000 0.0000 1747.3599 -7424.0308 299.8505 -9171.3906 -7424.0308 299.8505 447.0036 534.1628 29711.9108 447.0036 534.1628
ENERGY: 300000 0.6763 2.9745 0.9060 0.0000 -10644.2211 1443.0679 0.0000 0.0000 1758.2286 -7438.3678 301.7156 -9196.5964 -7435.5550 299.0935 190.9650 244.5998 29970.6628 402.2951 472.7869
ENERGY: 600000 2.0756 3.1300 0.5617 0.0000 -10577.7242 1386.2873 0.0000 0.0000 1786.6237 -7399.0460 306.5882 -9185.6697 -7432.8958 301.5865 -235.8082 -200.8082 29926.0133 157.3268 222.2018
ENERGY: 900000 0.7214 2.9385 2.0543 0.0000 -10707.5492 1502.3365 0.0000 0.0000 1783.4093 -7416.0892 306.0366 -9199.4985 -7430.8343 302.0924 365.9286 437.9356 30257.6842 148.9405 216.2468
ENERGY: 1200000 0.0385 2.8948 0.9294 0.0000 -10634.6211 1448.6545 0.0000 0.0000 1756.5565 -7425.5474 301.4286 -9182.1040 -7427.0098 301.5795 260.0372 307.8488 29983.0608 113.0108 171.8737
ENERGY: 1500000 0.5911 1.2289 0.6073 0.0000 -10662.3528 1450.5805 0.0000 0.0000 1785.9807 -7423.3643 306.4779 -9209.3450 -7428.3966 301.6659 346.0785 416.0487 29785.1118 136.6131 203.8308
TCL: Running FEP window   8: Lambda1 0.35   Lambda2 0.39999999999999997 [dLambda 0.04999999999999999]
TCL: Setting parameter firsttimestep to 0
TCL: Setting parameter alchLambda to 0.35
Info: NONBONDED TABLE R-SQUARED SPACING: 0.0625
Info: NONBONDED TABLE SIZE: 705 POINTS
TCL: Setting parameter alchLambda2 to 0.39999999999999997
Info: NONBONDED TABLE R-SQUARED SPACING: 0.0625
Info: NONBONDED TABLE SIZE: 705 POINTS
TCL: Running for 1500000 steps
ETITLE: TS BOND ANGLE DIHED IMPRP ELECT VDW BOUNDARY MISC KINETIC TOTAL TEMP POTENTIAL TOTALAVG TEMPAVG PRESSURE GPRESSURE VOLUME PRESSAVG GPRESSAVG
ENERGY: 0 0.5911 1.2289 0.6073 0.0000 -10662.3530 1451.5621 0.0000 0.0000 1785.1049 -7423.2588 306.3276 -9208.3637 -7423.2588 306.3276 333.4454 425.8429 29785.1118 333.4454 425.8429
ENERGY: 300000 0.5317 3.6297 0.9195 0.0000 -10635.9708 1445.6122 0.0000 0.0000 1763.4235 -7421.8542 302.6070 -9185.2777 -7424.9163 303.6282 167.8779 211.5816 29886.3080 30.7701 83.7034
ENERGY: 600000 0.2023 5.5097 0.4654 0.0000 -10722.1795 1512.6676 0.0000 0.0000 1735.5335 -7467.8010 297.8210 -9203.3345 -7439.3375 300.8318 657.9462 673.4748 30176.0293 167.6573 222.8881
ENERGY: 900000 0.1551 2.4863 0.4771 0.0000 -10642.7997 1368.8017 0.0000 0.0000 1674.6310 -7596.2485 287.3700 -9270.8795 -7446.1500 299.7540 -606.6163 -582.4704 29930.8844 40.3727 96.2754
ENERGY: 1200000 0.5948 7.5134 0.3542 0.0000 -10586.7634 1451.0085 0.0000 0.0000 1749.8365 -7377.4562 300.2755 -9127.2927 -7439.6829 299.1009 49.6343 114.1849 30746.7644 -76.1351 -14.7028
ENERGY: 1500000 0.1429 2.4440 0.5157 0.0000 -10631.0574 1404.7034 0.0000 0.0000 1731.3068 -7491.9446 297.0957 -9223.2514 -7448.4278 299.1896 -226.2755 -150.7193 29924.1749 -23.2643 49.0285
TCL: Running FEP window   9: Lambda1 0.39999999999999997 Lambda2 0.44999999999999996 [dLambda 0.04999999999999999]
TCL: Setting parameter firsttimestep to 0
TCL: Setting parameter alchLambda to 0.39999999999999997
Info: NONBONDED TABLE R-SQUARED SPACING: 0.0625
Info: NONBONDED TABLE SIZE: 705 POINTS
TCL: Setting parameter alchLambda2 to 0.44999999999999996
Info: NONBONDED TABLE R-SQUARED SPACING: 0.0625
Info: NONBONDED TABLE SIZE: 705 POINTS
TCL: Running for 1500000 steps
ETITLE: TS BOND ANGLE DIHED IMPRP ELECT VDW BOUNDARY MISC KINETIC TOTAL TEMP POTENTIAL TOTALAVG TEMPAVG PRESSURE GPRESSURE VOLUME PRESSAVG GPRESSAVG
ENERGY: 0 0.1429 2.4440 0.5157 0.0000 -10631.0564 1405.8434 0.0000 0.0000 1730.4650 -7491.6454 296.9513 -9222.1104 -7491.6454 296.9513 -221.0178 -138.2084 29924.1749 -221.0178 -138.2084
ENERGY: 300000 0.1982 3.3549 0.4035 0.0000 -10566.9578 1394.4428 0.0000 0.0000 1803.2087 -7365.3498 309.4342 -9168.5584 -7450.0729 302.1649 -326.6262 -255.9626 30370.8049 -301.4582 -237.9995
ENERGY: 600000 1.1612 2.7910 0.9415 0.0000 -10566.3198 1397.5746 0.0000 0.0000 1703.2754 -7460.5760 292.2855 -9163.8514 -7459.9943 300.1552 -336.3637 -214.8148 30241.3359 -257.9207 -184.8147
ENERGY: 900000 0.5634 3.1416 0.3268 0.0000 -10548.9365 1353.6587 0.0000 0.0000 1735.8618 -7455.3842 297.8774 -9191.2460 -7450.0072 300.5193 -728.4421 -661.0449 30244.6638 -176.4033 -109.2445
ENERGY: 1200000 0.6349 2.0937 0.7472 0.0000 -10622.9915 1426.5600 0.0000 0.0000 1742.7014 -7450.2543 299.0511 -9192.9557 -7448.3296 300.4793 -54.9236 -11.1418 30258.4756 -127.4325 -60.7308
ENERGY: 1500000 1.5758 2.9048 0.0762 0.0000 -10841.3589 1540.2425 0.0000 0.0000 1789.4264 -7507.1332 307.0692 -9296.5596 -7454.3741 300.6129 567.1822 637.2087 30041.8255 2.2634 68.3712
TCL: Running FEP window  10: Lambda1 0.44999999999999996 Lambda2 0.49999999999999994 [dLambda 0.04999999999999999]
TCL: Setting parameter firsttimestep to 0
TCL: Setting parameter alchLambda to 0.44999999999999996
Info: NONBONDED TABLE R-SQUARED SPACING: 0.0625
Info: NONBONDED TABLE SIZE: 705 POINTS
TCL: Setting parameter alchLambda2 to 0.49999999999999994
Info: NONBONDED TABLE R-SQUARED SPACING: 0.0625
Info: NONBONDED TABLE SIZE: 705 POINTS
TCL: Running for 1500000 steps
ETITLE: TS BOND ANGLE DIHED IMPRP ELECT VDW BOUNDARY MISC KINETIC TOTAL TEMP POTENTIAL TOTALAVG TEMPAVG PRESSURE GPRESSURE VOLUME PRESSAVG GPRESSAVG
ENERGY: 0 1.5758 2.9048 0.0762 0.0000 -10841.3609 1540.0324 0.0000 0.0000 1788.6071 -7508.1645 306.9286 -9296.7717 -7508.1645 306.9286 570.8994 637.0845 30041.8255 570.8994 637.0845
ENERGY: 300000 0.8672 5.8336 2.5043 0.0000 -10750.9009 1530.3131 0.0000 0.0000 1721.1947 -7490.1880 295.3605 -9211.3827 -7499.3086 300.8331 755.2627 670.7110 30085.0924 188.4700 216.0760
ENERGY: 600000 1.1737 4.6437 0.4670 0.0000 -10601.3683 1393.6515 0.0000 0.0000 1699.5152 -7501.9172 291.6402 -9201.4324 -7495.0510 299.3819 -469.2535 -412.8824 30286.1443 -1.2410 39.5416
ENERGY: 900000 0.6963 4.7925 0.3230 0.0000 -10548.7620 1398.2850 0.0000 0.0000 1715.4105 -7429.2548 294.3679 -9144.6653 -7482.1253 298.9141 -145.8860 -109.0283 30176.5399 -102.3370 -57.0727
ENERGY: 1200000 0.0257 1.7112 0.8107 0.0000 -10657.5318 1483.9462 0.0000 0.0000 1728.3152 -7442.7228 296.5824 -9171.0380 -7474.9229 299.0346 448.5964 471.1470 30330.3535 -61.9696 -27.1458
ENERGY: 1500000 0.8686 4.4861 0.2435 0.0000 -10631.4432 1407.3969 0.0000 0.0000 1711.0924 -7507.3556 293.6269 -9218.4481 -7477.0257 298.7213 -259.7702 -177.8586 29789.9671 -81.1532 -33.6369
TCL: Running FEP window  11: Lambda1 0.49999999999999994 Lambda2 0.5499999999999999 [dLambda 0.04999999999999999]
TCL: Setting parameter firsttimestep to 0
TCL: Setting parameter alchLambda to 0.49999999999999994
Info: NONBONDED TABLE R-SQUARED SPACING: 0.0625
Info: NONBONDED TABLE SIZE: 705 POINTS
TCL: Setting parameter alchLambda2 to 0.5499999999999999
Info: NONBONDED TABLE R-SQUARED SPACING: 0.0625
Info: NONBONDED TABLE SIZE: 705 POINTS
TCL: Running for 1500000 steps
ETITLE: TS BOND ANGLE DIHED IMPRP ELECT VDW BOUNDARY MISC KINETIC TOTAL TEMP POTENTIAL TOTALAVG TEMPAVG PRESSURE GPRESSURE VOLUME PRESSAVG GPRESSAVG
ENERGY: 0 0.8686 4.4861 0.2435 0.0000 -10631.4430 1407.2230 0.0000 0.0000 1710.2179 -7508.4039 293.4768 -9218.6218 -7508.4039 293.4768 -271.0992 -174.3001 29789.9671 -271.0992 -174.3001
ENERGY: 300000 0.4894 1.9656 0.2685 0.0000 -10674.5159 1479.2704 0.0000 0.0000 1688.1085 -7504.4135 289.6828 -9192.5220 -7502.3407 295.5168 118.3759 168.8384 30302.8634 -210.6672 -145.7059
ENERGY: 600000 0.9779 4.5664 0.7880 0.0000 -10495.2323 1313.0708 0.0000 0.0000 1717.1621 -7458.6669 294.6685 -9175.8290 -7479.0340 295.1259 -873.3705 -750.6141 30069.1973 -318.0365 -230.1471
ENERGY: 900000 0.2364 3.0802 1.4332 0.0000 -10570.8180 1375.0770 0.0000 0.0000 1747.2894 -7443.7018 299.8384 -9190.9912 -7480.9102 296.1145 -383.7465 -266.2493 30134.5680 -260.6275 -165.5115
ENERGY: 1200000 0.5413 2.5065 0.6056 0.0000 -10571.5865 1393.6969 0.0000 0.0000 1710.3011 -7463.9351 293.4911 -9174.2362 -7478.7431 296.2332 -329.6588 -285.8116 30421.0928 -219.3161 -139.5664
ENERGY: 1500000 0.7569 2.5610 1.6181 0.0000 -10480.3174 1401.5135 0.0000 0.0000 1806.3434 -7267.5245 309.9722 -9073.8679 -7462.6151 297.6191 46.5123 83.7830 30790.6951 -122.5670 -52.5346
TCL: Running FEP window  12: Lambda1 0.5499999999999999 Lambda2 0.6    [dLambda 0.050000000000000044]
TCL: Setting parameter firsttimestep to 0
TCL: Setting parameter alchLambda to 0.5499999999999999
Info: NONBONDED TABLE R-SQUARED SPACING: 0.0625
Info: NONBONDED TABLE SIZE: 705 POINTS
TCL: Setting parameter alchLambda2 to 0.6
Info: NONBONDED TABLE R-SQUARED SPACING: 0.0625
Info: NONBONDED TABLE SIZE: 705 POINTS
TCL: Running for 1500000 steps
ETITLE: TS BOND ANGLE DIHED IMPRP ELECT VDW BOUNDARY MISC KINETIC TOTAL TEMP POTENTIAL TOTALAVG TEMPAVG PRESSURE GPRESSURE VOLUME PRESSAVG GPRESSAVG
ENERGY: 0 0.7569 2.5610 1.6181 0.0000 -10480.0979 1402.4439 0.0000 0.0000 1805.4644 -7267.2536 309.8213 -9072.7180 -7267.2536 309.8213 28.3964 95.6013 30790.6951 28.3964 95.6013
ENERGY: 300000 0.3450 4.1528 0.8935 0.0000 -10693.8777 1491.1139 0.0000 0.0000 1735.3120 -7462.0604 297.7830 -9197.3724 -7425.7542 301.3440 852.3933 906.1849 29558.6582 513.6091 594.3840
ENERGY: 600000 0.1623 2.3624 0.0494 0.0000 -10657.9629 1385.3893 0.0000 0.0000 1744.0813 -7525.9182 299.2879 -9269.9995 -7445.3889 300.2110 -677.4390 -608.0123 30571.8328 168.4945 240.8728
ENERGY: 900000 1.0109 5.3766 0.3418 0.0000 -10619.4462 1416.3879 0.0000 0.0000 1745.5682 -7450.7608 299.5430 -9196.3290 -7457.5605 299.8410 25.7693 132.6143 30032.4801 143.5892 217.3603
ENERGY: 1200000 1.1732 2.4011 0.8347 0.0000 -10603.7513 1445.3956 0.0000 0.0000 1801.9809 -7351.9657 309.2235 -9153.9467 -7442.4422 301.5310 351.7863 462.7761 30023.4791 104.6613 180.5272
ENERGY: 1500000 0.2841 3.5788 0.2489 0.0000 -10603.1951 1405.5307 0.0000 0.0000 1787.0045 -7406.5481 306.6536 -9193.5526 -7439.4622 301.1944 -313.7101 -231.8483 30426.7976 111.0475 181.7135
TCL: Running FEP window  13: Lambda1 0.6    Lambda2 0.65   [dLambda 0.050000000000000044]
TCL: Setting parameter firsttimestep to 0
TCL: Setting parameter alchLambda to 0.6
Info: NONBONDED TABLE R-SQUARED SPACING: 0.0625
Info: NONBONDED TABLE SIZE: 705 POINTS
TCL: Setting parameter alchLambda2 to 0.65
Info: NONBONDED TABLE R-SQUARED SPACING: 0.0625
Info: NONBONDED TABLE SIZE: 705 POINTS
TCL: Running for 1500000 steps
ETITLE: TS BOND ANGLE DIHED IMPRP ELECT VDW BOUNDARY MISC KINETIC TOTAL TEMP POTENTIAL TOTALAVG TEMPAVG PRESSURE GPRESSURE VOLUME PRESSAVG GPRESSAVG
ENERGY: 0 0.2841 3.5788 0.2489 0.0000 -10603.1271 1406.0766 0.0000 0.0000 1786.1352 -7406.8035 306.5044 -9192.9386 -7406.8035 306.5044 -299.9623 -219.5300 30426.7976 -299.9623 -219.5300
ENERGY: 300000 0.6054 3.2848 0.4227 0.0000 -10537.1645 1366.8274 0.0000 0.0000 1791.4834 -7374.5408 307.4222 -9166.0242 -7430.7473 302.5165 -310.3523 -296.9091 30229.1247 -286.9315 -243.0419
ENERGY: 600000 0.3052 3.1058 0.2252 0.0000 -10601.2801 1437.7944 0.0000 0.0000 1754.7959 -7405.0536 301.1265 -9159.8495 -7426.1308 303.8894 20.9596 111.1933 30345.5218 -263.3661 -209.2219
ENERGY: 900000 0.0235 6.6698 0.5181 0.0000 -10683.9362 1468.9031 0.0000 0.0000 1766.6110 -7441.2108 303.1540 -9207.8217 -7420.4229 303.2499 423.6283 515.5664 29999.1960 -49.5784 10.0658
ENERGY: 1200000 1.7891 4.7043 0.8103 0.0000 -10750.0526 1488.3225 0.0000 0.0000 1813.2582 -7441.1682 311.1588 -9254.4264 -7429.6833 303.0060 246.7616 308.7571 30079.5801 -23.1031 32.5041
ENERGY: 1500000 1.5254 3.1562 0.3264 0.0000 -10584.8563 1398.6501 0.0000 0.0000 1732.9532 -7448.2451 297.3782 -9181.1983 -7430.6678 302.2596 -260.2051 -216.9309 30212.8477 -97.5560 -40.8683
TCL: Running FEP window  14: Lambda1 0.65   Lambda2 0.7000000000000001 [dLambda 0.050000000000000044]
TCL: Setting parameter firsttimestep to 0
TCL: Setting parameter alchLambda to 0.65
Info: NONBONDED TABLE R-SQUARED SPACING: 0.0625
Info: NONBONDED TABLE SIZE: 705 POINTS
TCL: Setting parameter alchLambda2 to 0.7000000000000001
Info: NONBONDED TABLE R-SQUARED SPACING: 0.0625
Info: NONBONDED TABLE SIZE: 705 POINTS
TCL: Running for 1500000 steps
ETITLE: TS BOND ANGLE DIHED IMPRP ELECT VDW BOUNDARY MISC KINETIC TOTAL TEMP POTENTIAL TOTALAVG TEMPAVG PRESSURE GPRESSURE VOLUME PRESSAVG GPRESSAVG
ENERGY: 0 1.5254 3.1562 0.3264 0.0000 -10585.4711 1398.6435 0.0000 0.0000 1732.0832 -7449.7364 297.2290 -9181.8196 -7449.7364 297.2290 -305.5962 -213.7464 30212.8477 -305.5962 -213.7464
ENERGY: 300000 0.4936 2.7978 0.3008 0.0000 -10568.7808 1371.8872 0.0000 0.0000 1831.7276 -7361.5738 314.3281 -9193.3015 -7420.6556 303.1736 -308.5592 -261.0391 30212.0204 -225.5257 -147.8172
ENERGY: 600000 1.7358 3.0963 0.7091 0.0000 -10578.9693 1394.7873 0.0000 0.0000 1727.4128 -7451.2279 296.4275 -9178.6407 -7443.5773 300.9419 -161.0069 -90.2093 30199.2683 -244.2858 -180.3847
ENERGY: 900000 0.8552 2.6860 0.1065 0.0000 -10610.0867 1342.4407 0.0000 0.0000 1753.8469 -7510.1514 300.9637 -9263.9983 -7466.6369 300.4857 -688.1841 -641.7972 29907.4369 -212.1904 -147.1567
ENERGY: 1200000 1.7216 2.7233 1.2872 0.0000 -10658.1590 1444.0352 0.0000 0.0000 1722.1386 -7486.2531 295.5224 -9208.3917 -7465.6331 299.9317 47.4780 126.4101 29951.8120 -171.7904 -107.0478
ENERGY: 1500000 2.3923 3.2974 0.0584 0.0000 -10603.6036 1436.2041 0.0000 0.0000 1686.5772 -7475.0742 289.4200 -9161.6514 -7452.6763 299.8895 -160.4373 -46.0019 30602.4822 -123.6871 -55.4356
TCL: Running FEP window  15: Lambda1 0.7000000000000001 Lambda2 0.7500000000000001 [dLambda 0.050000000000000044]
TCL: Setting parameter firsttimestep to 0
TCL: Setting parameter alchLambda to 0.7000000000000001
Info: NONBONDED TABLE R-SQUARED SPACING: 0.0625
Info: NONBONDED TABLE SIZE: 705 POINTS
TCL: Setting parameter alchLambda2 to 0.7500000000000001
Info: NONBONDED TABLE R-SQUARED SPACING: 0.0625
Info: NONBONDED TABLE SIZE: 705 POINTS
TCL: Running for 1500000 steps
ETITLE: TS BOND ANGLE DIHED IMPRP ELECT VDW BOUNDARY MISC KINETIC TOTAL TEMP POTENTIAL TOTALAVG TEMPAVG PRESSURE GPRESSURE VOLUME PRESSAVG GPRESSAVG
ENERGY: 0 2.3923 3.2974 0.0584 0.0000 -10604.1523 1436.2986 0.0000 0.0000 1685.7391 -7476.3664 289.2762 -9162.1055 -7476.3664 289.2762 -125.5610 -39.4021 30602.4822 -125.5610 -39.4021
ENERGY: 300000 0.1681 4.6889 0.8260 0.0000 -10588.2637 1418.7734 0.0000 0.0000 1755.9203 -7407.8870 301.3195 -9163.8073 -7450.1197 297.9807 158.9560 194.1708 30106.9279 35.8153 106.5135
ENERGY: 600000 0.1555 1.8211 0.5290 0.0000 -10499.5380 1371.7090 0.0000 0.0000 1696.6051 -7428.7182 291.1408 -9125.3233 -7455.5081 297.7117 -37.9520 -47.5430 29968.2598 -102.0951 -51.5631
ENERGY: 900000 1.4400 6.3818 1.2174 0.0000 -10525.0877 1352.7058 0.0000 0.0000 1727.1484 -7436.1941 296.3821 -9163.3425 -7467.4649 297.3270 -634.5235 -585.7668 30482.3036 -137.2570 -82.9274
ENERGY: 1200000 0.0142 2.5050 2.4443 0.0000 -10649.4786 1499.9780 0.0000 0.0000 1714.2413 -7430.2958 294.1672 -9144.5370 -7462.8036 298.1701 466.8746 541.5307 30392.6785 -44.5675 6.1986
ENERGY: 1500000 1.3838 1.8304 0.1636 0.0000 -10519.3100 1379.1769 0.0000 0.0000 1802.1136 -7334.6417 309.2463 -9136.7553 -7448.1815 299.6995 -79.0380 0.2654 29962.8003 -120.0138 -66.1896
TCL: Running FEP window  16: Lambda1 0.7500000000000001 Lambda2 0.8000000000000002 [dLambda 0.050000000000000044]
TCL: Setting parameter firsttimestep to 0
TCL: Setting parameter alchLambda to 0.7500000000000001
Info: NONBONDED TABLE R-SQUARED SPACING: 0.0625
Info: NONBONDED TABLE SIZE: 705 POINTS
TCL: Setting parameter alchLambda2 to 0.8000000000000002
Info: NONBONDED TABLE R-SQUARED SPACING: 0.0625
Info: NONBONDED TABLE SIZE: 705 POINTS
TCL: Running for 1500000 steps
ETITLE: TS BOND ANGLE DIHED IMPRP ELECT VDW BOUNDARY MISC KINETIC TOTAL TEMP POTENTIAL TOTALAVG TEMPAVG PRESSURE GPRESSURE VOLUME PRESSAVG GPRESSAVG
ENERGY: 0 1.3838 1.8304 0.1636 0.0000 -10519.5598 1379.1461 0.0000 0.0000 1801.2254 -7335.8105 309.0939 -9137.0359 -7335.8105 309.0939 -75.3239 4.7092 29962.8003 -75.3239 4.7092
ENERGY: 300000 0.1659 4.1970 0.6487 0.0000 -10795.6055 1533.3558 0.0000 0.0000 1757.3773 -7499.8609 301.5695 -9257.2382 -7428.4418 300.2055 919.8447 968.0090 29631.6188 365.7968 430.5924
ENERGY: 600000 0.0208 4.2421 2.5858 0.0000 -10741.8247 1549.3466 0.0000 0.0000 1734.4641 -7451.1653 297.6375 -9185.6294 -7438.0546 300.9167 677.7859 765.4310 30639.7719 338.3433 394.2794
ENERGY: 900000 0.2651 3.4390 0.5887 0.0000 -10503.7764 1412.5334 0.0000 0.0000 1754.1378 -7332.8124 301.0136 -9086.9502 -7431.5032 300.6978 -195.3750 -125.4136 30950.2336 338.9366 393.6792
ENERGY: 1200000 0.4075 2.8749 1.1370 0.0000 -10550.0135 1383.9132 0.0000 0.0000 1713.6901 -7447.9910 294.0727 -9161.6811 -7432.6483 299.7802 -363.2768 -299.9834 30288.0801 191.0638 250.9996
ENERGY: 1500000 0.1703 3.5838 0.4736 0.0000 -10614.1759 1412.7745 0.0000 0.0000 1763.3491 -7433.8247 302.5942 -9197.1738 -7430.9129 300.7221 -241.5805 -111.6531 30279.2510 89.5532 152.7430
TCL: Running FEP window  17: Lambda1 0.8000000000000002 Lambda2 0.8500000000000002 [dLambda 0.050000000000000044]
TCL: Setting parameter firsttimestep to 0
TCL: Setting parameter alchLambda to 0.8000000000000002
Info: NONBONDED TABLE R-SQUARED SPACING: 0.0625
Info: NONBONDED TABLE SIZE: 705 POINTS
TCL: Setting parameter alchLambda2 to 0.8500000000000002
Info: NONBONDED TABLE R-SQUARED SPACING: 0.0625
Info: NONBONDED TABLE SIZE: 705 POINTS
TCL: Running for 1500000 steps
ETITLE: TS BOND ANGLE DIHED IMPRP ELECT VDW BOUNDARY MISC KINETIC TOTAL TEMP POTENTIAL TOTALAVG TEMPAVG PRESSURE GPRESSURE VOLUME PRESSAVG GPRESSAVG
ENERGY: 0 0.1703 3.5838 0.4736 0.0000 -10614.5772 1412.9850 0.0000 0.0000 1762.4041 -7434.9605 302.4321 -9197.3646 -7434.9605 302.4321 -185.8201 -103.8517 30279.2510 -185.8201 -103.8517
ENERGY: 300000 0.1135 5.6427 0.9531 0.0000 -10519.2417 1382.5926 0.0000 0.0000 1766.4239 -7363.5160 303.1219 -9129.9399 -7430.4568 301.4015 -366.4717 -263.8101 30539.6738 -61.1095 9.4044
ENERGY: 600000 0.3990 2.2679 0.2497 0.0000 -10509.8794 1317.6729 0.0000 0.0000 1732.5730 -7456.7169 297.3130 -9189.2899 -7439.4128 298.9790 -763.2996 -684.9753 30244.3626 -142.2320 -76.0964
ENERGY: 900000 0.0027 2.8130 0.6380 0.0000 -10565.9408 1364.0548 0.0000 0.0000 1757.0507 -7441.3815 301.5134 -9198.4321 -7451.5051 299.3408 -659.7228 -621.0820 30482.4409 -187.5263 -121.9644
ENERGY: 1200000 0.2682 3.5090 0.8777 0.0000 -10556.7195 1392.0897 0.0000 0.0000 1776.6561 -7383.3188 304.8778 -9159.9749 -7449.5421 298.8273 -94.7918 -84.0227 30078.3517 -294.7591 -232.3895
ENERGY: 1500000 1.3674 4.0077 0.3741 0.0000 -10597.2513 1410.8047 0.0000 0.0000 1806.2219 -7374.4754 309.9513 -9180.6973 -7441.4219 299.4142 161.0039 175.1326 30090.8494 -349.6925 -291.6579
TCL: Running FEP window  18: Lambda1 0.8500000000000002 Lambda2 0.9000000000000002 [dLambda 0.050000000000000044]
TCL: Setting parameter firsttimestep to 0
TCL: Setting parameter alchLambda to 0.8500000000000002
Info: NONBONDED TABLE R-SQUARED SPACING: 0.0625
Info: NONBONDED TABLE SIZE: 705 POINTS
TCL: Setting parameter alchLambda2 to 0.9000000000000002
Info: NONBONDED TABLE R-SQUARED SPACING: 0.0625
Info: NONBONDED TABLE SIZE: 705 POINTS
TCL: Running for 1500000 steps
ETITLE: TS BOND ANGLE DIHED IMPRP ELECT VDW BOUNDARY MISC KINETIC TOTAL TEMP POTENTIAL TOTALAVG TEMPAVG PRESSURE GPRESSURE VOLUME PRESSAVG GPRESSAVG
ENERGY: 0 1.3674 4.0077 0.3741 0.0000 -10598.3401 1411.8888 0.0000 0.0000 1805.3147 -7375.3873 309.7956 -9180.7020 -7375.3873 309.7956 117.4815 194.5632 30090.8494 117.4815 194.5632
ENERGY: 300000 0.5139 3.5347 0.4320 0.0000 -10741.3853 1506.6937 0.0000 0.0000 1742.4811 -7487.7299 299.0133 -9230.2110 -7418.1248 302.5291 494.8012 609.7698 30006.5632 130.0996 224.2683
ENERGY: 600000 0.2381 2.5177 1.2518 0.0000 -10675.1060 1482.2985 0.0000 0.0000 1716.2300 -7472.5699 294.5085 -9188.7999 -7429.5163 300.2854 717.8500 755.7313 29652.5832 122.1309 184.7661
ENERGY: 900000 0.3810 2.4530 0.2970 0.0000 -10723.9554 1467.7108 0.0000 0.0000 1816.4711 -7436.6425 311.7101 -9253.1136 -7437.4833 302.8166 -75.3954 -89.9769 30700.9621 218.0786 268.7242
ENERGY: 1200000 0.2020 2.8246 0.1619 0.0000 -10746.7201 1494.0940 0.0000 0.0000 1676.3763 -7573.0613 287.6695 -9249.4375 -7451.3525 301.3174 348.4021 352.0897 30257.6992 107.4181 154.3335
ENERGY: 1500000 0.8586 3.6623 1.0260 0.0000 -10674.3894 1388.0332 0.0000 0.0000 1716.1454 -7564.6638 294.4940 -9280.8092 -7454.8797 300.6442 -807.6387 -684.1308 30403.4502 -13.9224 37.1063
TCL: Running FEP window  19: Lambda1 0.9000000000000002 Lambda2 0.9500000000000003 [dLambda 0.050000000000000044]
TCL: Setting parameter firsttimestep to 0
TCL: Setting parameter alchLambda to 0.9000000000000002
Info: NONBONDED TABLE R-SQUARED SPACING: 0.0625
Info: NONBONDED TABLE SIZE: 705 POINTS
TCL: Setting parameter alchLambda2 to 0.9500000000000003
Info: NONBONDED TABLE R-SQUARED SPACING: 0.0625
Info: NONBONDED TABLE SIZE: 705 POINTS
TCL: Running for 1500000 steps
ETITLE: TS BOND ANGLE DIHED IMPRP ELECT VDW BOUNDARY MISC KINETIC TOTAL TEMP POTENTIAL TOTALAVG TEMPAVG PRESSURE GPRESSURE VOLUME PRESSAVG GPRESSAVG
ENERGY: 0 0.8586 3.6623 1.0260 0.0000 -10674.7282 1388.1169 0.0000 0.0000 1715.2749 -7565.7894 294.3446 -9281.0644 -7565.7894 294.3446 -767.4935 -678.4401 30403.4502 -767.4935 -678.4401
ENERGY: 300000 0.0412 0.8787 0.4221 0.0000 -10637.7372 1368.0251 0.0000 0.0000 1715.8843 -7552.4858 294.4492 -9268.3701 -7530.0125 296.1275 -560.5766 -516.8455 29992.1733 -150.3058 -92.1069
ENERGY: 600000 0.2000 5.0403 3.3378 0.0000 -10699.2993 1465.0945 0.0000 0.0000 1769.4683 -7456.1584 303.6443 -9225.6266 -7500.3917 297.2465 108.8188 135.9358 30477.5041 -61.6420 -2.6631
ENERGY: 900000 0.3240 2.9808 0.0018 0.0000 -10746.7919 1476.8459 0.0000 0.0000 1743.7382 -7522.9013 299.2290 -9266.6395 -7502.6393 297.5700 264.7077 353.7492 30072.7881 62.8670 121.7576
ENERGY: 1200000 0.1327 3.5378 0.6344 0.0000 -10559.3918 1334.7443 0.0000 0.0000 1762.3855 -7457.9572 302.4289 -9220.3427 -7483.5226 298.8297 -1055.3676 -971.6022 30708.2411 -7.0998 50.9248
ENERGY: 1500000 0.5981 1.9040 0.3163 0.0000 -10754.7951 1450.8547 0.0000 0.0000 1743.3075 -7557.8145 299.1551 -9301.1220 -7482.1940 299.9190 -48.5546 60.1170 29668.9229 -33.1681 28.8802
TCL: Running FEP window  20: Lambda1 0.9500000000000003 Lambda2 1.0    [dLambda 0.04999999999999971]
TCL: Setting parameter firsttimestep to 0
TCL: Setting parameter alchLambda to 0.9500000000000003
Info: NONBONDED TABLE R-SQUARED SPACING: 0.0625
Info: NONBONDED TABLE SIZE: 705 POINTS
TCL: Setting parameter alchLambda2 to 1.0
Info: NONBONDED TABLE R-SQUARED SPACING: 0.0625
Info: NONBONDED TABLE SIZE: 705 POINTS
TCL: Running for 1500000 steps
ETITLE: TS BOND ANGLE DIHED IMPRP ELECT VDW BOUNDARY MISC KINETIC TOTAL TEMP POTENTIAL TOTALAVG TEMPAVG PRESSURE GPRESSURE VOLUME PRESSAVG GPRESSAVG
ENERGY: 0 0.5981 1.9040 0.3163 0.0000 -10755.3985 1450.9208 0.0000 0.0000 1742.4314 -7559.2278 299.0047 -9301.6592 -7559.2278 299.0047 -15.1444 65.4734 29668.9229 -15.1444 65.4734
ENERGY: 300000 0.0396 4.3099 0.6084 0.0000 -10597.1085 1391.8715 0.0000 0.0000 1755.4389 -7444.8402 301.2368 -9200.2792 -7473.5872 299.2487 -331.5499 -315.1381 30195.0415 195.9099 226.5531
ENERGY: 600000 0.2302 1.8603 0.9631 0.0000 -10612.5248 1383.3159 0.0000 0.0000 1775.6706 -7450.4847 304.7086 -9226.1553 -7464.2817 299.8428 -151.9373 -75.8587 29782.7511 37.1362 80.5492
ENERGY: 900000 0.2817 3.4124 1.1753 0.0000 -10671.0473 1456.3233 0.0000 0.0000 1807.4954 -7402.3594 310.1698 -9209.8548 -7461.9159 300.2637 514.6870 564.3913 29938.2314 -39.0670 9.6842
ENERGY: 1200000 0.6096 3.2398 0.7408 0.0000 -10771.7684 1447.6129 0.0000 0.0000 1741.6171 -7577.9483 298.8650 -9319.5654 -7466.4001 299.8377 -138.8595 -37.6621 29879.0668 6.5544 61.2705
ENERGY: 1500000 0.3875 2.2824 0.1826 0.0000 -10519.5416 1311.3209 0.0000 0.0000 1751.2503 -7454.1178 300.5181 -9205.3682 -7465.3169 299.5458 -1110.4469 -1011.1142 30755.0421 -26.0498 38.7856
TCL: Exiting due to exit command.
