Info: SIMULATION PARAMETERS:
Info: TIMESTEP               2
Info: NUMBER OF STEPS        0
Info: STEPS PER CYCLE        10
Info: PERIODIC CELL BASIS 1  43.924 0 0
Info: PERIODIC CELL BASIS 2  0 42.62 0
Info: PERIODIC CELL BASIS 3  0 0 43.557
Info: PERIODIC CELL CENTER   0 0 0
Info: WRAPPING WATERS AROUND PERIODIC BOUNDARIES ON OUTPUT.
Info: WRAPPING ALL CLUSTERS AROUND PERIODIC BOUNDARIES ON OUTPUT.
Info: FIRST LDB TIMESTEP     50
Info: LAST LDB TIMESTEP     -1
Info: HOM BACKGROUND SCALING 1
Info: PME BACKGROUND SCALING 1
Info: MIN ATOMS PER PATCH    40
Info: EMPTY PATCH LOAD       40 ATOMS
Info: INITIAL TEMPERATURE    300
Info: CENTER OF MASS MOVING INITIALLY? NO
Info: DIELECTRIC             1
Info: EXCLUDE                SCALED ONE-FOUR
Info: 1-4 ELECTROSTATICS SCALED BY 0.833333
Info: MODIFIED 1-4 VDW PARAMETERS WILL BE USED
Info: DCD FILENAME           mobley_8124669_min.dcd
Info: DCD FREQUENCY          5000
Info: DCD FIRST STEP         5000
Info: DCD FILE WILL CONTAIN UNIT CELL DATA
Info: XST FILENAME           mobley_8124669_min.xst
Info: XST FREQUENCY          5000
Info: NO VELOCITY DCD OUTPUT
Info: NO FORCE DCD OUTPUT
Info: OUTPUT FILENAME        mobley_8124669_min
Info: BINARY OUTPUT FILES WILL BE USED
Info: RESTART FILENAME       mobley_8124669_min.restart
Info: RESTART FREQUENCY      5000
Info: BINARY RESTART FILES WILL BE USED
Info: CUTOFF                 9
Info: PAIRLIST DISTANCE      11
Info: PAIRLIST SHRINK RATE   0.01
Info: PAIRLIST GROW RATE     0.01
Info: PAIRLIST TRIGGER       0.3
Info: PAIRLISTS PER CYCLE    2
Info: PAIRLISTS ENABLED
Info: MARGIN                 8
Info: HYDROGEN GROUP CUTOFF  2.5
Info: PATCH DIMENSION        21.5
Info: ENERGY OUTPUT STEPS    5000
Info: ENERGY EVALUATION STEPS    5000
Info: OUTPUT ENERGY PRECISION 4
Info: CROSSTERM ENERGY INCLUDED IN DIHEDRAL
Info: TIMING OUTPUT STEPS    50000
Info: PRESSURE OUTPUT STEPS  5000
Info: LANGEVIN DYNAMICS ACTIVE
Info: LANGEVIN TEMPERATURE   300
Info: LANGEVIN USING BBK INTEGRATOR
Info: LANGEVIN DAMPING COEFFICIENT IS 1 INVERSE PS
Info: LANGEVIN DYNAMICS APPLIED TO HYDROGENS
Info: LANGEVIN PISTON PRESSURE CONTROL ACTIVE
Info:        TARGET PRESSURE IS 1.01325 BAR
Info:     OSCILLATION PERIOD IS 50 FS
Info:             DECAY TIME IS 25 FS
Info:     PISTON TEMPERATURE IS 300 K
Info:       PRESSURE CONTROL IS GROUP-BASED
Info:    INITIAL STRAIN RATE IS 0 0 0
Info:       CELL FLUCTUATION IS ISOTROPIC
Info: PARTICLE MESH EWALD (PME) ACTIVE
Info: PME TOLERANCE               1e-06
Info: PME EWALD COEFFICIENT       0.348832
Info: PME INTERPOLATION ORDER     4
Info: PME GRID DIMENSIONS         44 44 44
Info: PME MAXIMUM GRID SPACING    1
Info: FULL ELECTROSTATIC EVALUATION FREQUENCY      2
Info: USING VERLET I (r-RESPA) MTS SCHEME.
Info: C1 SPLITTING OF LONG RANGE ELECTROSTATICS
Info: PLACING ATOMS IN PATCHES BY HYDROGEN GROUPS
Info: RIGID BONDS TO HYDROGEN : ALL
Info:         ERROR TOLERANCE : 1e-08
Info:          MAX ITERATIONS : 100
Info: RIGID WATER USING SETTLE ALGORITHM
Info: RANDOM NUMBER SEED     1741389405
Info: USE HYDROGEN BONDS?    NO
Info: Using AMBER format force field!
Info: AMBER PARM FILE        mobley_8124669.prmtop
Info: COORDINATE PDB         mobley_8124669.pdb
Info: Exclusions will be read from PARM file!
Info: SCNB (VDW SCALING)     2
Info: USING ARITHMETIC MEAN TO COMBINE L-J SIGMA PARAMETERS
Info: SUMMARY OF PARAMETERS:
Info: 16 BONDS
Info: 24 ANGLES
Info:   24 HARMONIC
Info:   0 COSINE-BASED
Info: 22 DIHEDRAL
Info: 0 IMPROPER
Info: 0 CROSSTERM
Info: 0 VDW
Info: 78 VDW_PAIRS
Info: 0 NBTHOLE_PAIRS
Info: STRUCTURE SUMMARY:
Info: 5903 ATOMS
Info: 5903 BONDS
Info: 67 ANGLES
Info: 95 DIHEDRALS
Info: 0 IMPROPERS
Info: 0 CROSSTERMS
Info: 6047 EXCLUSIONS
Info: 5885 RIGID BONDS
Info: 11824 DEGREES OF FREEDOM
Info: 1973 HYDROGEN GROUPS
Info: 4 ATOMS IN LARGEST HYDROGEN GROUP
Info: 1973 MIGRATION GROUPS
Info: 4 ATOMS IN LARGEST MIGRATION GROUP
Info: TOTAL MASS = 35491 amu
Info: TOTAL CHARGE = 0.000199992 e
Info: MASS DENSITY = 0.722778 g/cm^3
Info: ATOM DENSITY = 0.0723935 atoms/A^3
Info: ADDED 0 IMPLICIT EXCLUSIONS
Info: NONBONDED TABLE R-SQUARED SPACING: 0.0625
Info: NONBONDED TABLE SIZE: 705 POINTS
Info: REMOVING COM VELOCITY 0.0856947 -0.0473844 0.170979
TCL: Minimizing for 2000 steps
ETITLE: TS BOND ANGLE DIHED IMPRP ELECT VDW BOUNDARY MISC KINETIC TOTAL TEMP POTENTIAL TOTAL3 TEMPAVG PRESSURE GPRESSURE VOLUME PRESSAVG GPRESSAVG
ENERGY: 0 0.9664 2.0479 37.7796 0.0000 -18433.6497 2075.7659 0.0000 0.0000 0.0000 -16317.0898 0.0000 -16317.0898 -16317.0898 0.0000 11191.2687 -15996.8817 81540.4846 11191.2687 -15996.8817
ENERGY: 400 2.2711 3.4399 38.1865 0.0000 -24869.3636 3869.9866 0.0000 0.0000 0.0000 -20955.4795 0.0000 -20955.4795 -20955.4795 0.0000 16912.6171 17055.7639 81540.4846 16912.6171 17055.7639
ENERGY: 800 6.6586 3.0766 37.9034 0.0000 -25868.3329 4199.2980 0.0000 0.0000 0.0000 -21621.3963 0.0000 -21621.3963 -21621.3963 0.0000 18133.2832 18261.9721 81540.4846 18133.2832 18261.9721
ENERGY: 1200 1.1340 1.6720 37.8103 0.0000 -26276.2415 4314.2594 0.0000 0.0000 0.0000 -21921.3657 0.0000 -21921.3657 -21921.3657 0.0000 18619.0887 18746.7270 81540.4846 18619.0887 18746.7270
ENERGY: 1600 1.2027 1.6187 37.9089 0.0000 -26579.3317 4440.6955 0.0000 0.0000 0.0000 -22097.9059 0.0000 -22097.9059 -22097.9059 0.0000 19150.1087 19269.2937 81540.4846 19150.1087 19269.2937
ENERGY: 2000 2.3040 1.6884 37.8955 0.0000 -26851.8609 4587.9519 0.0000 0.0000 0.0000 -22222.0211 0.0000 -22222.0211 -22222.0211 0.0000 19802.1295 19910.9380 81540.4846 19802.1295 19910.9380
TCL: Exiting due to exit command.
Info: NAMD 3.0.1 for Linux-x86_64-multicore
Info: Please visit http://www.ks.uiuc.edu/Research/namd/
Info: for updates, documentation, and support information.
Info: Please cite Phillips et al., J. Chem. Phys. 153:044130 (2020) doi:10.1063/5.0014475
Info: in all publications reporting results obtained with NAMD.
Info: Based on Charm++/Converse 80000 for multicore-linux-x86_64-gcc
Info: Built Mon Oct 14 11:11:06 CDT 2024 by dhardy on athine.ks.uiuc.edu
Info: 1 NAMD  3.0.1  Linux-x86_64-multicore  16    k018  z5358697
Info: Running on 16 processors, 1 nodes, 1 physical nodes.
Info: CPU topology information available.
Info: Charm++/Converse parallel runtime startup completed at 0.00551971 s
Info: 1043.45 MB of memory in use based on /proc/self/stat
Info: Configuration file is mobley_8124669_equil.namd
Info: Working in the current directory /srv/scratch/z5358697/prod_prep_10/8124669
TCL: Running 25000 steps at 30 kelvin.
TCL: Suspending until startup complete.
Info: SIMULATION PARAMETERS:
Info: TIMESTEP               2
Info: NUMBER OF STEPS        0
Info: STEPS PER CYCLE        10
Info: PERIODIC CELL BASIS 1  43.924 0 0
Info: PERIODIC CELL BASIS 2  0 42.62 0
Info: PERIODIC CELL BASIS 3  0 0 43.557
Info: PERIODIC CELL CENTER   0 0 0
Info: WRAPPING WATERS AROUND PERIODIC BOUNDARIES ON OUTPUT.
Info: WRAPPING ALL CLUSTERS AROUND PERIODIC BOUNDARIES ON OUTPUT.
Info: FIRST LDB TIMESTEP     50
Info: LAST LDB TIMESTEP     -1
Info: HOM BACKGROUND SCALING 1
Info: PME BACKGROUND SCALING 1
Info: MIN ATOMS PER PATCH    40
Info: EMPTY PATCH LOAD       40 ATOMS
Info: INITIAL TEMPERATURE    300
Info: CENTER OF MASS MOVING INITIALLY? NO
Info: DIELECTRIC             1
Info: EXCLUDE                SCALED ONE-FOUR
Info: 1-4 ELECTROSTATICS SCALED BY 0.833333
Info: MODIFIED 1-4 VDW PARAMETERS WILL BE USED
Info: DCD FILENAME           mobley_8124669_equil.dcd
Info: DCD FREQUENCY          5000
Info: DCD FIRST STEP         5000
Info: DCD FILE WILL CONTAIN UNIT CELL DATA
Info: XST FILENAME           mobley_8124669_equil.xst
Info: XST FREQUENCY          5000
Info: NO VELOCITY DCD OUTPUT
Info: NO FORCE DCD OUTPUT
Info: OUTPUT FILENAME        mobley_8124669_equil
Info: BINARY OUTPUT FILES WILL BE USED
Info: RESTART FILENAME       mobley_8124669_equil.restart
Info: RESTART FREQUENCY      5000
Info: BINARY RESTART FILES WILL BE USED
Info: CUTOFF                 9
Info: PAIRLIST DISTANCE      11
Info: PAIRLIST SHRINK RATE   0.01
Info: PAIRLIST GROW RATE     0.01
Info: PAIRLIST TRIGGER       0.3
Info: PAIRLISTS PER CYCLE    2
Info: PAIRLISTS ENABLED
Info: MARGIN                 8
Info: HYDROGEN GROUP CUTOFF  2.5
Info: PATCH DIMENSION        21.5
Info: ENERGY OUTPUT STEPS    5000
Info: ENERGY EVALUATION STEPS    5000
Info: OUTPUT ENERGY PRECISION 4
Info: CROSSTERM ENERGY INCLUDED IN DIHEDRAL
Info: TIMING OUTPUT STEPS    50000
Info: PRESSURE OUTPUT STEPS  5000
Info: LANGEVIN DYNAMICS ACTIVE
Info: LANGEVIN TEMPERATURE   30
Info: LANGEVIN USING BBK INTEGRATOR
Info: LANGEVIN DAMPING COEFFICIENT IS 1 INVERSE PS
Info: LANGEVIN DYNAMICS APPLIED TO HYDROGENS
Info: LANGEVIN PISTON PRESSURE CONTROL ACTIVE
Info:        TARGET PRESSURE IS 1.01325 BAR
Info:     OSCILLATION PERIOD IS 50 FS
Info:             DECAY TIME IS 25 FS
Info:     PISTON TEMPERATURE IS 300 K
Info:       PRESSURE CONTROL IS GROUP-BASED
Info:    INITIAL STRAIN RATE IS 0 0 0
Info:       CELL FLUCTUATION IS ISOTROPIC
Info: PARTICLE MESH EWALD (PME) ACTIVE
Info: PME TOLERANCE               1e-06
Info: PME EWALD COEFFICIENT       0.348832
Info: PME INTERPOLATION ORDER     4
Info: PME GRID DIMENSIONS         44 44 44
Info: PME MAXIMUM GRID SPACING    1
Info: FULL ELECTROSTATIC EVALUATION FREQUENCY      2
Info: USING VERLET I (r-RESPA) MTS SCHEME.
Info: C1 SPLITTING OF LONG RANGE ELECTROSTATICS
Info: PLACING ATOMS IN PATCHES BY HYDROGEN GROUPS
Info: RIGID BONDS TO HYDROGEN : ALL
Info:         ERROR TOLERANCE : 1e-08
Info:          MAX ITERATIONS : 100
Info: RIGID WATER USING SETTLE ALGORITHM
Info: RANDOM NUMBER SEED     1741389420
Info: USE HYDROGEN BONDS?    NO
Info: Using AMBER format force field!
Info: AMBER PARM FILE        mobley_8124669.prmtop
Info: COORDINATE PDB         mobley_8124669.pdb
Info: Exclusions will be read from PARM file!
Info: SCNB (VDW SCALING)     2
Info: USING ARITHMETIC MEAN TO COMBINE L-J SIGMA PARAMETERS
Info: BINARY COORDINATES     mobley_8124669_min.coor
Info: SUMMARY OF PARAMETERS:
Info: 16 BONDS
Info: 24 ANGLES
Info:   24 HARMONIC
Info:   0 COSINE-BASED
Info: 22 DIHEDRAL
Info: 0 IMPROPER
Info: 0 CROSSTERM
Info: 0 VDW
Info: 78 VDW_PAIRS
Info: 0 NBTHOLE_PAIRS
Info: STRUCTURE SUMMARY:
Info: 5903 ATOMS
Info: 5903 BONDS
Info: 67 ANGLES
Info: 95 DIHEDRALS
Info: 0 IMPROPERS
Info: 0 CROSSTERMS
Info: 6047 EXCLUSIONS
Info: 5885 RIGID BONDS
Info: 11824 DEGREES OF FREEDOM
Info: 1973 HYDROGEN GROUPS
Info: 4 ATOMS IN LARGEST HYDROGEN GROUP
Info: 1973 MIGRATION GROUPS
Info: 4 ATOMS IN LARGEST MIGRATION GROUP
Info: TOTAL MASS = 35491 amu
Info: TOTAL CHARGE = 0.000199992 e
Info: MASS DENSITY = 0.722778 g/cm^3
Info: ATOM DENSITY = 0.0723935 atoms/A^3
Info: ADDED 0 IMPLICIT EXCLUSIONS
Info: NONBONDED TABLE R-SQUARED SPACING: 0.0625
Info: NONBONDED TABLE SIZE: 705 POINTS
Info: REMOVING COM VELOCITY -0.0294467 0.00883436 -0.0380288
TCL: Running for 25000 steps
ETITLE: TS BOND ANGLE DIHED IMPRP ELECT VDW BOUNDARY MISC KINETIC TOTAL TEMP POTENTIAL TOTAL3 TEMPAVG PRESSURE GPRESSURE VOLUME PRESSAVG GPRESSAVG
ENERGY: 0 2.3040 1.6884 37.8955 0.0000 -26851.8609 4587.9519 0.0000 0.0000 3498.3801 -18723.6410 297.7782 -22222.0211 -18722.8917 297.7782 175.9850 213.8481 81540.4846 175.9850 213.8481
ENERGY: 5000 1.2031 2.8967 37.8046 0.0000 -28213.9515 4885.4685 0.0000 0.0000 364.4274 -22922.1511 31.0197 -23286.5785 -22921.0816 47.9201 156.7613 217.1312 57505.4935 2.9980 2.8796
ENERGY: 10000 0.7018 3.1007 37.6928 0.0000 -28284.9619 4891.9530 0.0000 0.0000 353.6814 -22997.8322 30.1050 -23351.5136 -22996.9106 30.4578 105.2179 163.3265 57220.9435 2.4818 2.5073
ENERGY: 15000 1.8064 2.4159 37.2235 0.0000 -28066.4032 4648.8754 0.0000 0.0000 358.5324 -23017.5496 30.5179 -23376.0820 -23016.4473 30.1805 -1040.3621 -970.2549 57649.2168 2.4220 2.6912
ENERGY: 20000 0.9837 3.0349 37.5768 0.0000 -28388.8653 4963.7493 0.0000 0.0000 345.8739 -23037.6466 29.4404 -23383.5205 -23036.6083 29.9901 363.1144 418.2221 57089.6282 4.7922 4.8174
ENERGY: 25000 1.3615 2.4484 37.9176 0.0000 -28231.8861 4806.5957 0.0000 0.0000 350.8031 -23032.7599 29.8600 -23383.5630 -23031.9910 30.0513 -408.5578 -338.3797 57395.4169 -0.2886 -0.2891
TCL: Running 25000 steps at 60 kelvin.
TCL: Setting parameter langevinTemp to 60
TCL: Running for 25000 steps
ETITLE: TS BOND ANGLE DIHED IMPRP ELECT VDW BOUNDARY MISC KINETIC TOTAL TEMP POTENTIAL TOTAL3 TEMPAVG PRESSURE GPRESSURE VOLUME PRESSAVG GPRESSAVG
ENERGY: 25000 1.3615 2.4484 37.9176 0.0000 -28231.8861 4806.5957 0.0000 0.0000 350.6277 -23032.9353 29.8450 -23383.5630 -23032.1801 29.8450 -409.6229 -338.4584 57395.4169 -409.6229 -338.4584
ENERGY: 30000 1.4309 4.3331 37.9892 0.0000 -27874.8636 4780.5922 0.0000 0.0000 706.8723 -22343.6459 60.1682 -23050.5181 -22341.7013 57.0544 220.4478 276.0595 57339.4418 0.3308 0.7356
ENERGY: 35000 1.8524 3.3269 38.5684 0.0000 -27860.7651 4689.6056 0.0000 0.0000 715.7680 -22411.6438 60.9254 -23127.4118 -22410.0092 60.2478 -279.8665 -202.2451 57317.1327 4.9834 5.4205
ENERGY: 40000 2.1248 4.1195 38.8120 0.0000 -28108.5952 4885.1693 0.0000 0.0000 704.6964 -22473.6732 59.9830 -23178.3697 -22472.3207 59.9749 467.2444 532.7656 56996.4491 1.1473 1.0657
ENERGY: 45000 3.0786 4.9348 38.3008 0.0000 -27943.4013 4714.0026 0.0000 0.0000 703.4045 -22479.6800 59.8730 -23183.0845 -22478.2012 60.3335 -280.3659 -237.3244 57108.5105 2.9760 3.0054
ENERGY: 50000 2.1810 4.0966 38.1213 0.0000 -28088.6426 4820.3735 0.0000 0.0000 700.4740 -22523.3962 59.6236 -23223.8702 -22521.7567 60.0174 111.1224 161.1805 57014.8358 -0.8734 -0.8527
TCL: Running 25000 steps at 90 kelvin.
TCL: Setting parameter langevinTemp to 90
TCL: Running for 25000 steps
ETITLE: TS BOND ANGLE DIHED IMPRP ELECT VDW BOUNDARY MISC KINETIC TOTAL TEMP POTENTIAL TOTAL3 TEMPAVG PRESSURE GPRESSURE VOLUME PRESSAVG GPRESSAVG
ENERGY: 50000 2.1810 4.0966 38.1213 0.0000 -28088.6426 4820.3735 0.0000 0.0000 700.1289 -22523.7413 59.5942 -23223.8702 -22522.1864 59.5942 106.7874 161.2250 57014.8358 106.7874 161.2250
ENERGY: 55000 1.5574 5.2830 37.8550 0.0000 -27624.2078 4682.8992 0.0000 0.0000 1063.1721 -21833.4412 90.4960 -22896.6132 -21830.4150 86.9006 111.9386 149.1611 57612.8108 6.3118 6.1077
ENERGY: 60000 1.9946 5.1696 39.0489 0.0000 -27565.9377 4596.1595 0.0000 0.0000 1058.1918 -21865.3734 90.0721 -22923.5651 -21862.2159 90.2703 -432.4011 -371.1994 57865.4792 6.1345 6.0167
ENERGY: 65000 1.4923 5.7843 41.4020 0.0000 -27806.6746 4800.0043 0.0000 0.0000 1064.0449 -21893.9468 90.5703 -22957.9917 -21890.6441 90.1381 484.9035 527.1060 57205.3460 3.0667 2.8051
ENERGY: 70000 2.5914 6.1567 39.7674 0.0000 -27585.0337 4576.4060 0.0000 0.0000 1048.7475 -21911.3647 89.2682 -22960.1122 -21909.1551 89.8490 -479.8890 -441.4106 57640.2615 6.4060 6.4487
ENERGY: 75000 3.1765 7.5682 38.9141 0.0000 -27924.5900 4882.8036 0.0000 0.0000 1074.9022 -21917.2254 91.4945 -22992.1276 -21913.8225 90.0943 819.3176 858.7730 57162.7286 1.0710 1.3045
TCL: Running 25000 steps at 120 kelvin.
TCL: Setting parameter langevinTemp to 120
TCL: Running for 25000 steps
ETITLE: TS BOND ANGLE DIHED IMPRP ELECT VDW BOUNDARY MISC KINETIC TOTAL TEMP POTENTIAL TOTAL3 TEMPAVG PRESSURE GPRESSURE VOLUME PRESSAVG GPRESSAVG
ENERGY: 75000 3.1765 7.5682 38.9141 0.0000 -27924.5900 4882.8036 0.0000 0.0000 1074.3799 -21917.7476 91.4500 -22992.1276 -21915.7863 91.4500 808.8219 858.8865 57162.7286 808.8219 858.8865
ENERGY: 80000 2.7382 9.2061 39.9545 0.0000 -27293.9101 4682.8917 0.0000 0.0000 1405.8167 -21153.3029 119.6616 -22559.1196 -21150.2256 117.0931 659.3966 685.8120 57876.7633 5.1092 4.9092
ENERGY: 85000 5.9734 7.3293 40.6101 0.0000 -27154.9769 4532.7533 0.0000 0.0000 1390.6616 -21177.6493 118.3716 -22568.3109 -21175.1673 120.1990 -89.8652 -24.3750 57905.1591 3.2721 3.0177
ENERGY: 90000 2.0798 9.1436 41.2525 0.0000 -27288.1878 4582.5198 0.0000 0.0000 1397.1134 -21256.0787 118.9207 -22653.1921 -21252.8302 119.5246 28.0128 89.7293 57912.0824 6.3780 6.2206
ENERGY: 95000 2.0934 7.0126 41.1992 0.0000 -27538.1359 4816.3167 0.0000 0.0000 1411.3344 -21260.1796 120.1312 -22671.5140 -21256.0156 119.9932 1075.4479 1135.2087 57499.5378 1.9571 2.2362
ENERGY: 100000 2.5249 6.8697 40.2987 0.0000 -27307.9551 4589.4053 0.0000 0.0000 1436.3006 -21232.5560 122.2563 -22668.8565 -21229.2708 120.2992 26.7290 95.6277 57852.0180 3.3569 2.7990
TCL: Running 25000 steps at 150 kelvin.
TCL: Setting parameter langevinTemp to 150
TCL: Running for 25000 steps
ETITLE: TS BOND ANGLE DIHED IMPRP ELECT VDW BOUNDARY MISC KINETIC TOTAL TEMP POTENTIAL TOTAL3 TEMPAVG PRESSURE GPRESSURE VOLUME PRESSAVG GPRESSAVG
ENERGY: 100000 2.5249 6.8697 40.2987 0.0000 -27307.9551 4589.4053 0.0000 0.0000 1435.6023 -21233.2543 122.1969 -22668.8565 -21230.8546 122.1969 41.0615 96.0757 57852.0180 41.0615 96.0757
ENERGY: 105000 3.2085 8.3710 39.0393 0.0000 -26786.0649 4446.6852 0.0000 0.0000 1764.8742 -20523.8868 150.2241 -22288.7610 -20519.6079 147.2994 235.8667 283.5538 57765.4829 1.5263 1.8190
ENERGY: 110000 3.0547 7.8718 38.9902 0.0000 -26784.8115 4425.0001 0.0000 0.0000 1782.7316 -20527.1630 151.7441 -22309.8947 -20520.6594 149.2354 -26.2612 78.0503 57799.2925 3.0952 3.7800
ENERGY: 115000 2.6447 7.7589 38.9937 0.0000 -26915.8043 4559.7346 0.0000 0.0000 1744.6926 -20561.9799 148.5063 -22306.6724 -20558.4011 149.9661 730.2712 748.1590 57380.4478 4.9100 5.2545
ENERGY: 120000 2.0606 9.1802 40.4179 0.0000 -26781.4733 4393.5088 0.0000 0.0000 1726.3064 -20609.9994 146.9413 -22336.3058 -20605.0343 149.2407 -79.6073 6.8817 57717.5408 4.5018 4.3629
ENERGY: 125000 3.9614 8.5650 38.4729 0.0000 -26762.1639 4414.2536 0.0000 0.0000 1778.0026 -20518.9084 151.3416 -22296.9110 -20514.5616 149.8627 -38.8765 27.6942 57979.1835 0.1133 0.7768
TCL: Running 50000 steps at 180 kelvin.
TCL: Setting parameter langevinTemp to 180
TCL: Running for 50000 steps
ETITLE: TS BOND ANGLE DIHED IMPRP ELECT VDW BOUNDARY MISC KINETIC TOTAL TEMP POTENTIAL TOTAL3 TEMPAVG PRESSURE GPRESSURE VOLUME PRESSAVG GPRESSAVG
ENERGY: 125000 3.9614 8.5650 38.4729 0.0000 -26762.1639 4414.2536 0.0000 0.0000 1777.1101 -20519.8009 151.2656 -22296.9110 -20516.3234 151.2656 -25.4379 27.8035 57979.1835 -25.4379 27.8035
ENERGY: 135000 4.0843 8.0374 37.6223 0.0000 -26243.5253 4279.6635 0.0000 0.0000 2159.6001 -19754.5176 183.8228 -21914.1178 -19749.5445 179.3596 305.0706 338.1542 57660.9736 2.7768 2.8179
ENERGY: 145000 5.0081 9.6134 42.3142 0.0000 -26002.5642 4147.2158 0.0000 0.0000 2097.2369 -19701.1759 178.5145 -21798.4128 -19695.5379 179.8665 -238.8406 -220.8797 58132.6315 6.6023 6.9336
ENERGY: 155000 3.6674 10.4581 38.9628 0.0000 -26110.7285 4170.1154 0.0000 0.0000 2117.7405 -19769.7843 180.2597 -21887.5249 -19762.1041 180.6987 -353.6337 -283.1245 58227.7323 4.6963 4.8066
ENERGY: 165000 4.7325 9.9566 42.2822 0.0000 -26211.4843 4232.5480 0.0000 0.0000 2104.3216 -19817.6434 179.1175 -21921.9650 -19811.4284 180.1447 126.8386 204.7338 57451.6739 4.0187 3.7742
ENERGY: 175000 2.2777 12.6476 38.2443 0.0000 -26154.5525 4155.1158 0.0000 0.0000 2078.4689 -19867.7982 176.9170 -21946.2672 -19863.5451 179.3078 -259.2302 -187.3904 57689.7656 2.5662 2.5677
TCL: Running 50000 steps at 210 kelvin.
TCL: Setting parameter langevinTemp to 210
TCL: Running for 50000 steps
ETITLE: TS BOND ANGLE DIHED IMPRP ELECT VDW BOUNDARY MISC KINETIC TOTAL TEMP POTENTIAL TOTAL3 TEMPAVG PRESSURE GPRESSURE VOLUME PRESSAVG GPRESSAVG
ENERGY: 175000 2.2777 12.6476 38.2443 0.0000 -26154.5525 4155.1158 0.0000 0.0000 2077.4241 -19868.8431 176.8280 -21946.2672 -19865.1120 176.8280 -243.7938 -188.4605 57689.7656 -243.7938 -188.4605
ENERGY: 185000 3.1050 11.0234 41.6714 0.0000 -25217.2971 4034.5778 0.0000 0.0000 2415.2440 -18711.6755 205.5829 -21126.9196 -18707.6448 209.0525 788.8185 826.4755 57176.2777 -1.2936 -1.1065
ENERGY: 195000 3.6392 14.7754 39.1511 0.0000 -24840.3560 3745.4938 0.0000 0.0000 2502.1392 -18535.1573 212.9793 -21037.2966 -18527.6270 210.0101 -336.4950 -232.8374 57800.9381 5.6846 5.3997
ENERGY: 205000 4.2585 9.8430 43.0360 0.0000 -24751.2226 3765.4167 0.0000 0.0000 2458.4617 -18470.2067 209.2615 -20928.6684 -18466.8231 210.0784 59.7807 105.1629 57396.3165 3.4041 3.6723
ENERGY: 215000 5.6322 10.4486 43.6846 0.0000 -24761.3075 3752.9960 0.0000 0.0000 2494.2784 -18454.2676 212.3102 -20948.5461 -18446.8386 210.7056 -69.7613 -14.7189 57556.5363 2.8417 2.8953
ENERGY: 225000 6.0295 17.3385 39.0876 0.0000 -24719.2158 3727.9558 0.0000 0.0000 2475.1766 -18453.6276 210.6843 -20928.8043 -18448.8577 211.2244 -227.0439 -140.5149 57674.9415 2.6453 2.8689
TCL: Running 50000 steps at 240 kelvin.
TCL: Setting parameter langevinTemp to 240
TCL: Running for 50000 steps
ETITLE: TS BOND ANGLE DIHED IMPRP ELECT VDW BOUNDARY MISC KINETIC TOTAL TEMP POTENTIAL TOTAL3 TEMPAVG PRESSURE GPRESSURE VOLUME PRESSAVG GPRESSAVG
ENERGY: 225000 6.0295 17.3385 39.0876 0.0000 -24719.2158 3727.9558 0.0000 0.0000 2473.9382 -18454.8661 210.5789 -20928.8043 -18450.7773 210.5789 -219.7705 -140.4919 57674.9415 -219.7705 -140.4919
ENERGY: 235000 3.1468 12.7635 40.2675 0.0000 -23643.5181 3497.8179 0.0000 0.0000 2857.2293 -17232.2931 243.2042 -20089.5225 -17225.9032 239.7979 257.9301 361.8792 58422.0055 6.3185 6.6122
ENERGY: 245000 4.4439 11.2338 41.0975 0.0000 -23564.6892 3416.8321 0.0000 0.0000 2872.0756 -17219.0064 244.4679 -20091.0820 -17211.6917 240.5648 17.4488 132.9183 57897.0953 3.5019 3.6548
ENERGY: 255000 6.6383 13.4982 41.6515 0.0000 -23577.7384 3447.3776 0.0000 0.0000 2839.1165 -17229.4564 241.6625 -20068.5729 -17223.2640 239.5163 -75.4115 30.2591 58461.2638 1.4279 1.1414
ENERGY: 265000 5.1196 12.9134 41.0271 0.0000 -23651.3006 3409.7190 0.0000 0.0000 2831.6677 -17350.8538 241.0284 -20182.5216 -17344.0703 239.3914 -172.3705 -69.1515 57762.6290 2.0571 1.9605
ENERGY: 275000 4.2087 11.0917 39.1146 0.0000 -23369.0156 3242.4223 0.0000 0.0000 2802.3925 -17269.7857 238.5365 -20072.1782 -17262.1938 239.1288 -700.6448 -576.5485 58117.0468 0.7599 0.5689
TCL: Running 50000 steps at 270 kelvin.
TCL: Setting parameter langevinTemp to 270
TCL: Running for 50000 steps
ETITLE: TS BOND ANGLE DIHED IMPRP ELECT VDW BOUNDARY MISC KINETIC TOTAL TEMP POTENTIAL TOTAL3 TEMPAVG PRESSURE GPRESSURE VOLUME PRESSAVG GPRESSAVG
ENERGY: 275000 4.2087 11.0917 39.1146 0.0000 -23369.0156 3242.4223 0.0000 0.0000 2800.9850 -17271.1933 238.4167 -20072.1782 -17265.7279 238.4167 -660.6604 -575.3098 58117.0468 -660.6604 -575.3098
ENERGY: 285000 5.4574 15.3747 43.0446 0.0000 -22578.8538 3209.0065 0.0000 0.0000 3160.0599 -16145.9107 268.9808 -19305.9706 -16139.8010 269.7158 309.5279 412.3659 58904.4263 5.2406 4.7375
ENERGY: 295000 4.6300 12.0560 41.4894 0.0000 -22304.6168 3079.4255 0.0000 0.0000 3135.2377 -16031.7782 266.8680 -19167.0159 -16022.0061 272.0404 41.6625 86.7064 59027.8123 -1.3253 -1.5020
ENERGY: 305000 5.0741 17.0415 42.2023 0.0000 -22638.3076 3232.6139 0.0000 0.0000 3182.8463 -16158.5295 270.9204 -19341.3758 -16151.8014 267.7222 136.0912 231.0459 59553.7432 2.5126 2.1095
ENERGY: 315000 8.6599 15.7559 42.0419 0.0000 -22611.1503 3175.2615 0.0000 0.0000 3159.3616 -16210.0694 268.9214 -19369.4310 -16203.0186 269.2525 -119.6405 -32.1465 59472.3068 -0.2681 -0.7188
ENERGY: 325000 9.7114 17.4048 39.2380 0.0000 -22318.6518 2950.0830 0.0000 0.0000 3177.7833 -16124.4312 270.4894 -19302.2146 -16114.6379 269.7024 -813.5447 -733.0642 59285.4090 0.6351 1.0155
TCL: Running 1000000 steps at 300 kelvin.
TCL: Setting parameter langevinTemp to 300
TCL: Running for 1000000 steps
ETITLE: TS BOND ANGLE DIHED IMPRP ELECT VDW BOUNDARY MISC KINETIC TOTAL TEMP POTENTIAL TOTAL3 TEMPAVG PRESSURE GPRESSURE VOLUME PRESSAVG GPRESSAVG
ENERGY: 325000 9.7114 17.4048 39.2380 0.0000 -22318.6518 2950.0830 0.0000 0.0000 3176.2217 -16125.9928 270.3565 -19302.2146 -16120.1921 270.3565 -815.1035 -732.0790 59285.4090 -815.1035 -732.0790
ENERGY: 525000 4.6020 12.9233 43.4363 0.0000 -21225.6095 2789.1008 0.0000 0.0000 3541.4255 -14834.1218 301.4422 -18375.5472 -14831.0685 301.1502 -301.3749 -247.8058 61248.6026 2.6688 2.2573
ENERGY: 725000 9.5872 18.3697 40.7256 0.0000 -21388.0387 2822.7343 0.0000 0.0000 3632.9843 -14863.6374 309.2356 -18496.6218 -14854.3246 299.4448 -156.5171 -98.1519 60749.5464 7.7986 7.7372
ENERGY: 925000 5.4457 15.9697 44.8383 0.0000 -21429.6747 2864.7909 0.0000 0.0000 3517.3971 -14981.2329 299.3969 -18498.6300 -14974.8785 298.2790 -107.3233 -11.9930 60954.6858 4.0954 4.0838
ENERGY: 1125000 5.6078 14.0988 40.8849 0.0000 -21484.8644 2892.6416 0.0000 0.0000 3568.5615 -14963.0699 303.7520 -18531.6313 -14958.9777 299.7435 -68.0974 -18.6717 60927.0288 -0.6279 0.0452
ENERGY: 1325000 8.1401 14.6246 42.2871 0.0000 -21372.6581 2865.7239 0.0000 0.0000 3585.2714 -14856.6109 305.1743 -18441.8823 -14851.0556 300.6810 53.1337 105.7990 60674.3668 0.8923 0.7864
TCL: Exiting due to exit command.
