Info: SIMULATION PARAMETERS:
Info: TIMESTEP               2
Info: NUMBER OF STEPS        0
Info: STEPS PER CYCLE        10
Info: PERIODIC CELL BASIS 1  42.113 0 0
Info: PERIODIC CELL BASIS 2  0 39.303 0
Info: PERIODIC CELL BASIS 3  0 0 39.527
Info: PERIODIC CELL CENTER   0 0 0
Info: WRAPPING WATERS AROUND PERIODIC BOUNDARIES ON OUTPUT.
Info: WRAPPING ALL CLUSTERS AROUND PERIODIC BOUNDARIES ON OUTPUT.
Info: FIRST LDB TIMESTEP     50
Info: LAST LDB TIMESTEP     -1
Info: HOM BACKGROUND SCALING 1
Info: PME BACKGROUND SCALING 1
Info: MIN ATOMS PER PATCH    40
Info: EMPTY PATCH LOAD       40 ATOMS
Info: INITIAL TEMPERATURE    300
Info: CENTER OF MASS MOVING INITIALLY? NO
Info: DIELECTRIC             1
Info: EXCLUDE                SCALED ONE-FOUR
Info: 1-4 ELECTROSTATICS SCALED BY 0.833333
Info: MODIFIED 1-4 VDW PARAMETERS WILL BE USED
Info: DCD FILENAME           mobley_4964807_min.dcd
Info: DCD FREQUENCY          5000
Info: DCD FIRST STEP         5000
Info: DCD FILE WILL CONTAIN UNIT CELL DATA
Info: XST FILENAME           mobley_4964807_min.xst
Info: XST FREQUENCY          5000
Info: NO VELOCITY DCD OUTPUT
Info: NO FORCE DCD OUTPUT
Info: OUTPUT FILENAME        mobley_4964807_min
Info: BINARY OUTPUT FILES WILL BE USED
Info: RESTART FILENAME       mobley_4964807_min.restart
Info: RESTART FREQUENCY      5000
Info: BINARY RESTART FILES WILL BE USED
Info: CUTOFF                 9
Info: PAIRLIST DISTANCE      11
Info: PAIRLIST SHRINK RATE   0.01
Info: PAIRLIST GROW RATE     0.01
Info: PAIRLIST TRIGGER       0.3
Info: PAIRLISTS PER CYCLE    2
Info: PAIRLISTS ENABLED
Info: MARGIN                 8
Info: HYDROGEN GROUP CUTOFF  2.5
Info: PATCH DIMENSION        21.5
Info: ENERGY OUTPUT STEPS    5000
Info: ENERGY EVALUATION STEPS    5000
Info: OUTPUT ENERGY PRECISION 4
Info: CROSSTERM ENERGY INCLUDED IN DIHEDRAL
Info: TIMING OUTPUT STEPS    50000
Info: PRESSURE OUTPUT STEPS  5000
Info: LANGEVIN DYNAMICS ACTIVE
Info: LANGEVIN TEMPERATURE   300
Info: LANGEVIN USING BBK INTEGRATOR
Info: LANGEVIN DAMPING COEFFICIENT IS 1 INVERSE PS
Info: LANGEVIN DYNAMICS APPLIED TO HYDROGENS
Info: LANGEVIN PISTON PRESSURE CONTROL ACTIVE
Info:        TARGET PRESSURE IS 1.01325 BAR
Info:     OSCILLATION PERIOD IS 50 FS
Info:             DECAY TIME IS 25 FS
Info:     PISTON TEMPERATURE IS 300 K
Info:       PRESSURE CONTROL IS GROUP-BASED
Info:    INITIAL STRAIN RATE IS 0 0 0
Info:       CELL FLUCTUATION IS ISOTROPIC
Info: PARTICLE MESH EWALD (PME) ACTIVE
Info: PME TOLERANCE               1e-06
Info: PME EWALD COEFFICIENT       0.348832
Info: PME INTERPOLATION ORDER     4
Info: PME GRID DIMENSIONS         44 40 40
Info: PME MAXIMUM GRID SPACING    1
Info: FULL ELECTROSTATIC EVALUATION FREQUENCY      2
Info: USING VERLET I (r-RESPA) MTS SCHEME.
Info: C1 SPLITTING OF LONG RANGE ELECTROSTATICS
Info: PLACING ATOMS IN PATCHES BY HYDROGEN GROUPS
Info: RIGID BONDS TO HYDROGEN : ALL
Info:         ERROR TOLERANCE : 1e-08
Info:          MAX ITERATIONS : 100
Info: RIGID WATER USING SETTLE ALGORITHM
Info: RANDOM NUMBER SEED     1741345900
Info: USE HYDROGEN BONDS?    NO
Info: Using AMBER format force field!
Info: AMBER PARM FILE        mobley_4964807.prmtop
Info: COORDINATE PDB         mobley_4964807.pdb
Info: Exclusions will be read from PARM file!
Info: SCNB (VDW SCALING)     2
Info: USING ARITHMETIC MEAN TO COMBINE L-J SIGMA PARAMETERS
Info: SUMMARY OF PARAMETERS:
Info: 9 BONDS
Info: 11 ANGLES
Info:   11 HARMONIC
Info:   0 COSINE-BASED
Info: 12 DIHEDRAL
Info: 0 IMPROPER
Info: 0 CROSSTERM
Info: 0 VDW
Info: 45 VDW_PAIRS
Info: 0 NBTHOLE_PAIRS
Info: STRUCTURE SUMMARY:
Info: 4714 ATOMS
Info: 4713 BONDS
Info: 19 ANGLES
Info: 25 DIHEDRALS
Info: 0 IMPROPERS
Info: 0 CROSSTERMS
Info: 4749 EXCLUSIONS
Info: 4706 RIGID BONDS
Info: 9436 DEGREES OF FREEDOM
Info: 1575 HYDROGEN GROUPS
Info: 4 ATOMS IN LARGEST HYDROGEN GROUP
Info: 1575 MIGRATION GROUPS
Info: 4 ATOMS IN LARGEST MIGRATION GROUP
Info: TOTAL MASS = 28350.2 amu
Info: TOTAL CHARGE = -2.23517e-08 e
Info: MASS DENSITY = 0.71958 g/cm^3
Info: ATOM DENSITY = 0.0720533 atoms/A^3
Info: ADDED 0 IMPLICIT EXCLUSIONS
Info: NONBONDED TABLE R-SQUARED SPACING: 0.0625
Info: NONBONDED TABLE SIZE: 705 POINTS
Info: REMOVING COM VELOCITY 0.175143 -0.0760926 0.150527
TCL: Minimizing for 2000 steps
ETITLE: TS BOND ANGLE DIHED IMPRP ELECT VDW BOUNDARY MISC KINETIC TOTAL TEMP POTENTIAL TOTAL3 TEMPAVG PRESSURE GPRESSURE VOLUME PRESSAVG GPRESSAVG
ENERGY: 0 0.2891 1.5140 23.7577 0.0000 -14741.2870 1673.6381 0.0000 0.0000 0.0000 -13042.0881 0.0000 -13042.0881 -13042.0881 0.0000 11043.2678 -15874.3425 65423.7955 11043.2678 -15874.3425
ENERGY: 400 3.9373 3.7581 21.8521 0.0000 -19769.2156 2846.0786 0.0000 0.0000 0.0000 -16893.5894 0.0000 -16893.5894 -16893.5894 0.0000 15578.1564 15709.7778 65423.7955 15578.1564 15709.7778
ENERGY: 800 29.8477 3.8646 22.9018 0.0000 -20927.4100 3428.0557 0.0000 0.0000 0.0000 -17442.7402 0.0000 -17442.7402 -17442.7402 0.0000 18392.1715 18532.1689 65423.7955 18392.1715 18532.1689
ENERGY: 1200 11.1088 7.2983 22.8930 0.0000 -21228.9742 3543.6317 0.0000 0.0000 0.0000 -17644.0423 0.0000 -17644.0423 -17644.0423 0.0000 18891.6052 18976.5869 65423.7955 18891.6052 18976.5869
ENERGY: 1600 0.4936 1.9199 22.7872 0.0000 -21471.2584 3675.4466 0.0000 0.0000 0.0000 -17770.6111 0.0000 -17770.6111 -17770.6111 0.0000 19582.9123 19691.9400 65423.7955 19582.9123 19691.9400
ENERGY: 2000 0.3422 1.6521 22.6381 0.0000 -21659.1708 3795.6731 0.0000 0.0000 0.0000 -17838.8653 0.0000 -17838.8653 -17838.8653 0.0000 20219.2279 20329.2543 65423.7955 20219.2279 20329.2543
TCL: Exiting due to exit command.
Info: NAMD 3.0.1 for Linux-x86_64-multicore
Info: Please visit http://www.ks.uiuc.edu/Research/namd/
Info: for updates, documentation, and support information.
Info: Please cite Phillips et al., J. Chem. Phys. 153:044130 (2020) doi:10.1063/5.0014475
Info: in all publications reporting results obtained with NAMD.
Info: Based on Charm++/Converse 80000 for multicore-linux-x86_64-gcc
Info: Built Mon Oct 14 11:11:06 CDT 2024 by dhardy on athine.ks.uiuc.edu
Info: 1 NAMD  3.0.1  Linux-x86_64-multicore  16    k008  z5358697
Info: Running on 16 processors, 1 nodes, 1 physical nodes.
Info: CPU topology information available.
Info: Charm++/Converse parallel runtime startup completed at 0.00933144 s
Info: 1043.45 MB of memory in use based on /proc/self/stat
Info: Configuration file is mobley_4964807_equil.namd
Info: Working in the current directory /srv/scratch/z5358697/prod_prep_6/4964807
TCL: Running 25000 steps at 30 kelvin.
TCL: Suspending until startup complete.
Info: SIMULATION PARAMETERS:
Info: TIMESTEP               2
Info: NUMBER OF STEPS        0
Info: STEPS PER CYCLE        10
Info: PERIODIC CELL BASIS 1  42.113 0 0
Info: PERIODIC CELL BASIS 2  0 39.303 0
Info: PERIODIC CELL BASIS 3  0 0 39.527
Info: PERIODIC CELL CENTER   0 0 0
Info: WRAPPING WATERS AROUND PERIODIC BOUNDARIES ON OUTPUT.
Info: WRAPPING ALL CLUSTERS AROUND PERIODIC BOUNDARIES ON OUTPUT.
Info: FIRST LDB TIMESTEP     50
Info: LAST LDB TIMESTEP     -1
Info: HOM BACKGROUND SCALING 1
Info: PME BACKGROUND SCALING 1
Info: MIN ATOMS PER PATCH    40
Info: EMPTY PATCH LOAD       40 ATOMS
Info: INITIAL TEMPERATURE    300
Info: CENTER OF MASS MOVING INITIALLY? NO
Info: DIELECTRIC             1
Info: EXCLUDE                SCALED ONE-FOUR
Info: 1-4 ELECTROSTATICS SCALED BY 0.833333
Info: MODIFIED 1-4 VDW PARAMETERS WILL BE USED
Info: DCD FILENAME           mobley_4964807_equil.dcd
Info: DCD FREQUENCY          5000
Info: DCD FIRST STEP         5000
Info: DCD FILE WILL CONTAIN UNIT CELL DATA
Info: XST FILENAME           mobley_4964807_equil.xst
Info: XST FREQUENCY          5000
Info: NO VELOCITY DCD OUTPUT
Info: NO FORCE DCD OUTPUT
Info: OUTPUT FILENAME        mobley_4964807_equil
Info: BINARY OUTPUT FILES WILL BE USED
Info: RESTART FILENAME       mobley_4964807_equil.restart
Info: RESTART FREQUENCY      5000
Info: BINARY RESTART FILES WILL BE USED
Info: CUTOFF                 9
Info: PAIRLIST DISTANCE      11
Info: PAIRLIST SHRINK RATE   0.01
Info: PAIRLIST GROW RATE     0.01
Info: PAIRLIST TRIGGER       0.3
Info: PAIRLISTS PER CYCLE    2
Info: PAIRLISTS ENABLED
Info: MARGIN                 8
Info: HYDROGEN GROUP CUTOFF  2.5
Info: PATCH DIMENSION        21.5
Info: ENERGY OUTPUT STEPS    5000
Info: ENERGY EVALUATION STEPS    5000
Info: OUTPUT ENERGY PRECISION 4
Info: CROSSTERM ENERGY INCLUDED IN DIHEDRAL
Info: TIMING OUTPUT STEPS    50000
Info: PRESSURE OUTPUT STEPS  5000
Info: LANGEVIN DYNAMICS ACTIVE
Info: LANGEVIN TEMPERATURE   30
Info: LANGEVIN USING BBK INTEGRATOR
Info: LANGEVIN DAMPING COEFFICIENT IS 1 INVERSE PS
Info: LANGEVIN DYNAMICS APPLIED TO HYDROGENS
Info: LANGEVIN PISTON PRESSURE CONTROL ACTIVE
Info:        TARGET PRESSURE IS 1.01325 BAR
Info:     OSCILLATION PERIOD IS 50 FS
Info:             DECAY TIME IS 25 FS
Info:     PISTON TEMPERATURE IS 300 K
Info:       PRESSURE CONTROL IS GROUP-BASED
Info:    INITIAL STRAIN RATE IS 0 0 0
Info:       CELL FLUCTUATION IS ISOTROPIC
Info: PARTICLE MESH EWALD (PME) ACTIVE
Info: PME TOLERANCE               1e-06
Info: PME EWALD COEFFICIENT       0.348832
Info: PME INTERPOLATION ORDER     4
Info: PME GRID DIMENSIONS         44 40 40
Info: PME MAXIMUM GRID SPACING    1
Info: FULL ELECTROSTATIC EVALUATION FREQUENCY      2
Info: USING VERLET I (r-RESPA) MTS SCHEME.
Info: C1 SPLITTING OF LONG RANGE ELECTROSTATICS
Info: PLACING ATOMS IN PATCHES BY HYDROGEN GROUPS
Info: RIGID BONDS TO HYDROGEN : ALL
Info:         ERROR TOLERANCE : 1e-08
Info:          MAX ITERATIONS : 100
Info: RIGID WATER USING SETTLE ALGORITHM
Info: RANDOM NUMBER SEED     1741345919
Info: USE HYDROGEN BONDS?    NO
Info: Using AMBER format force field!
Info: AMBER PARM FILE        mobley_4964807.prmtop
Info: COORDINATE PDB         mobley_4964807.pdb
Info: Exclusions will be read from PARM file!
Info: SCNB (VDW SCALING)     2
Info: USING ARITHMETIC MEAN TO COMBINE L-J SIGMA PARAMETERS
Info: BINARY COORDINATES     mobley_4964807_min.coor
Info: SUMMARY OF PARAMETERS:
Info: 9 BONDS
Info: 11 ANGLES
Info:   11 HARMONIC
Info:   0 COSINE-BASED
Info: 12 DIHEDRAL
Info: 0 IMPROPER
Info: 0 CROSSTERM
Info: 0 VDW
Info: 45 VDW_PAIRS
Info: 0 NBTHOLE_PAIRS
Info: STRUCTURE SUMMARY:
Info: 4714 ATOMS
Info: 4713 BONDS
Info: 19 ANGLES
Info: 25 DIHEDRALS
Info: 0 IMPROPERS
Info: 0 CROSSTERMS
Info: 4749 EXCLUSIONS
Info: 4706 RIGID BONDS
Info: 9436 DEGREES OF FREEDOM
Info: 1575 HYDROGEN GROUPS
Info: 4 ATOMS IN LARGEST HYDROGEN GROUP
Info: 1575 MIGRATION GROUPS
Info: 4 ATOMS IN LARGEST MIGRATION GROUP
Info: TOTAL MASS = 28350.2 amu
Info: TOTAL CHARGE = -2.23517e-08 e
Info: MASS DENSITY = 0.71958 g/cm^3
Info: ATOM DENSITY = 0.0720533 atoms/A^3
Info: ADDED 0 IMPLICIT EXCLUSIONS
Info: NONBONDED TABLE R-SQUARED SPACING: 0.0625
Info: NONBONDED TABLE SIZE: 705 POINTS
Info: REMOVING COM VELOCITY 0.00535908 -0.0559356 -0.185999
TCL: Running for 25000 steps
ETITLE: TS BOND ANGLE DIHED IMPRP ELECT VDW BOUNDARY MISC KINETIC TOTAL TEMP POTENTIAL TOTAL3 TEMPAVG PRESSURE GPRESSURE VOLUME PRESSAVG GPRESSAVG
ENERGY: 0 0.3422 1.6521 22.6381 0.0000 -21659.1708 3795.6731 0.0000 0.0000 2758.1027 -15080.7625 294.1798 -17838.8653 -15080.2392 294.1798 400.3713 440.9884 65423.7955 400.3713 440.9884
ENERGY: 5000 0.2809 1.8084 24.2310 0.0000 -22750.7473 4010.4715 0.0000 0.0000 292.4702 -18421.4852 31.1949 -18713.9554 -18420.7525 47.9375 378.4960 438.7206 45691.2689 -3.6298 -3.7565
ENERGY: 10000 1.0388 1.7547 24.4795 0.0000 -22634.8036 3871.7128 0.0000 0.0000 276.9014 -18458.9165 29.5344 -18735.8179 -18458.1021 30.1335 -463.8053 -411.8938 45945.1577 -0.6660 -0.4909
ENERGY: 15000 0.3566 2.7749 23.8794 0.0000 -22910.7864 4146.7679 0.0000 0.0000 278.3690 -18458.6385 29.6909 -18737.0076 -18457.7300 30.1387 1101.8378 1165.5437 45463.6163 0.4898 0.7035
ENERGY: 20000 0.4940 1.8802 24.0411 0.0000 -22972.3515 4193.2179 0.0000 0.0000 275.9598 -18476.7586 29.4339 -18752.7184 -18476.0312 30.0586 1299.9909 1338.7258 45382.8964 3.1586 2.9600
ENERGY: 25000 0.5086 2.6452 24.5925 0.0000 -22827.7173 4035.0955 0.0000 0.0000 281.4465 -18483.4290 30.0191 -18764.8755 -18482.8385 29.8444 342.6622 428.8335 45588.6418 0.9785 1.4028
TCL: Running 25000 steps at 60 kelvin.
TCL: Setting parameter langevinTemp to 60
TCL: Running for 25000 steps
ETITLE: TS BOND ANGLE DIHED IMPRP ELECT VDW BOUNDARY MISC KINETIC TOTAL TEMP POTENTIAL TOTAL3 TEMPAVG PRESSURE GPRESSURE VOLUME PRESSAVG GPRESSAVG
ENERGY: 25000 0.5086 2.6452 24.5925 0.0000 -22827.7173 4035.0955 0.0000 0.0000 281.3087 -18483.5668 30.0044 -18764.8755 -18483.0308 30.0044 363.4206 428.8502 45588.6418 363.4206 428.8502
ENERGY: 30000 0.5575 3.4809 23.0502 0.0000 -22289.8469 3784.2412 0.0000 0.0000 563.3232 -17915.1940 60.0842 -18478.5172 -17913.8419 57.1946 -197.7015 -121.1276 45858.4435 -2.0134 -2.1266
ENERGY: 35000 1.1129 3.3770 21.7578 0.0000 -22360.1052 3801.4229 0.0000 0.0000 567.2521 -17965.1824 60.5032 -18532.4346 -17963.5999 59.8627 -207.5749 -173.1531 45835.1542 0.0940 -0.1089
ENERGY: 40000 0.6912 3.0722 23.6219 0.0000 -22487.6729 3901.6124 0.0000 0.0000 569.4574 -17989.2178 60.7385 -18558.6753 -17988.1795 60.5525 160.4712 255.9215 45785.6267 3.3645 3.3100
ENERGY: 45000 0.8339 3.3560 22.8066 0.0000 -22356.1848 3763.9233 0.0000 0.0000 567.0722 -17998.1929 60.4840 -18565.2650 -17996.4879 60.2583 -534.7172 -481.0878 45987.3075 7.6672 7.4249
ENERGY: 50000 0.4653 2.0291 24.0504 0.0000 -22399.8118 3780.4696 0.0000 0.0000 556.2627 -18036.5347 59.3311 -18592.7974 -18034.5938 60.0464 -435.6305 -397.3705 45898.6673 2.3383 2.5908
TCL: Running 25000 steps at 90 kelvin.
TCL: Setting parameter langevinTemp to 90
TCL: Running for 25000 steps
ETITLE: TS BOND ANGLE DIHED IMPRP ELECT VDW BOUNDARY MISC KINETIC TOTAL TEMP POTENTIAL TOTAL3 TEMPAVG PRESSURE GPRESSURE VOLUME PRESSAVG GPRESSAVG
ENERGY: 50000 0.4653 2.0291 24.0504 0.0000 -22399.8118 3780.4696 0.0000 0.0000 555.9793 -18036.8181 59.3009 -18592.7974 -18035.5208 59.3009 -455.4848 -397.1654 45898.6673 -455.4848 -397.1654
ENERGY: 55000 0.4143 2.6890 23.7791 0.0000 -22071.3406 3725.8825 0.0000 0.0000 859.7717 -17458.8041 91.7034 -18318.5758 -17456.8541 87.2214 -163.1992 -103.2782 46100.6943 -0.3311 -0.2725
ENERGY: 60000 0.5259 3.3546 24.2041 0.0000 -22159.3512 3769.4419 0.0000 0.0000 848.8226 -17513.0021 90.5356 -18361.8247 -17511.6496 90.4663 170.0604 212.4806 45602.4271 4.1595 4.1638
ENERGY: 65000 1.0852 2.3192 22.5878 0.0000 -22280.3833 3859.6081 0.0000 0.0000 842.3512 -17552.4318 89.8454 -18394.7830 -17550.7067 89.6769 486.0341 541.3892 45665.9111 2.5612 2.5031
ENERGY: 70000 0.6894 3.2610 23.5128 0.0000 -22170.1297 3733.5961 0.0000 0.0000 854.1748 -17554.8958 91.1065 -18409.0706 -17553.5572 89.8337 -197.4768 -154.5533 45716.8156 1.6568 1.3668
ENERGY: 75000 0.6516 2.4146 23.2136 0.0000 -22213.1707 3766.2949 0.0000 0.0000 846.2680 -17574.3281 90.2631 -18420.5961 -17571.5331 90.0324 -61.8133 -8.5608 45822.5560 3.1239 2.4574
TCL: Running 25000 steps at 120 kelvin.
TCL: Setting parameter langevinTemp to 120
TCL: Running for 25000 steps
ETITLE: TS BOND ANGLE DIHED IMPRP ELECT VDW BOUNDARY MISC KINETIC TOTAL TEMP POTENTIAL TOTAL3 TEMPAVG PRESSURE GPRESSURE VOLUME PRESSAVG GPRESSAVG
ENERGY: 75000 0.6516 2.4146 23.2136 0.0000 -22213.1706 3766.2949 0.0000 0.0000 845.8324 -17574.7637 90.2167 -18420.5960 -17572.7546 90.2167 -66.7113 -8.4135 45822.5560 -66.7113 -8.4135
ENERGY: 80000 0.9337 4.4512 22.5982 0.0000 -21874.5550 3721.0469 0.0000 0.0000 1165.2752 -16960.2497 124.2885 -18125.5250 -16957.5124 116.7506 234.1021 301.7359 46120.4063 -2.3334 -2.0336
ENERGY: 85000 0.5949 3.2122 24.0697 0.0000 -21894.6303 3703.8009 0.0000 0.0000 1129.4643 -17033.4883 120.4689 -18162.9526 -17029.5120 119.6328 258.9594 293.0610 45923.8636 7.5702 7.7677
ENERGY: 90000 0.1358 3.0836 23.1208 0.0000 -21965.7816 3749.0976 0.0000 0.0000 1116.6649 -17073.6789 119.1037 -18190.3438 -17070.5147 118.9157 367.9968 456.4091 45812.4429 4.9239 5.1794
ENERGY: 95000 0.4940 3.3989 22.5362 0.0000 -21847.8135 3612.7024 0.0000 0.0000 1110.9489 -17097.7331 118.4940 -18208.6820 -17095.2797 119.3640 -412.8925 -346.4281 46030.1601 3.0600 3.4062
ENERGY: 100000 0.7342 3.7478 23.5141 0.0000 -21826.8813 3586.7312 0.0000 0.0000 1092.3292 -17119.8247 116.5081 -18212.1540 -17117.7463 119.4227 -556.9554 -481.5678 45959.6976 -1.3476 -1.4548
TCL: Running 25000 steps at 150 kelvin.
TCL: Setting parameter langevinTemp to 150
TCL: Running for 25000 steps
ETITLE: TS BOND ANGLE DIHED IMPRP ELECT VDW BOUNDARY MISC KINETIC TOTAL TEMP POTENTIAL TOTAL3 TEMPAVG PRESSURE GPRESSURE VOLUME PRESSAVG GPRESSAVG
ENERGY: 100000 0.7342 3.7478 23.5141 0.0000 -21826.8813 3586.7312 0.0000 0.0000 1091.7759 -17120.3781 116.4490 -18212.1540 -17118.4970 116.4490 -535.7373 -481.6804 45959.6976 -535.7373 -481.6804
ENERGY: 105000 1.8109 3.8045 23.8788 0.0000 -21327.3406 3435.5396 0.0000 0.0000 1434.7626 -16427.5444 153.0321 -17862.3069 -16424.4212 146.6016 -517.0013 -475.8624 46331.7573 8.0538 7.8715
ENERGY: 110000 1.6147 4.9734 21.2677 0.0000 -21496.1118 3567.1461 0.0000 0.0000 1411.4997 -16489.6102 150.5509 -17901.1099 -16484.5406 151.4059 237.1392 289.0491 45801.7038 0.4538 0.4957
ENERGY: 115000 1.1185 1.9109 25.1247 0.0000 -21599.3935 3670.1591 0.0000 0.0000 1410.9012 -16490.1791 150.4870 -17901.0803 -16487.0164 149.9121 585.2752 642.5337 46112.1924 3.2958 3.4388
ENERGY: 120000 1.7096 1.4877 24.4600 0.0000 -21384.8769 3460.3554 0.0000 0.0000 1389.1498 -16507.7143 148.1670 -17896.8642 -16504.8870 149.7169 -505.1107 -467.4172 46379.2525 4.9780 4.5532
ENERGY: 125000 1.0399 4.3510 22.8509 0.0000 -21441.7107 3478.7809 0.0000 0.0000 1466.8565 -16467.8315 156.4552 -17934.6881 -16463.3768 150.5482 -426.4324 -339.2602 46216.6759 -2.2861 -2.1504
TCL: Running 50000 steps at 180 kelvin.
TCL: Setting parameter langevinTemp to 180
TCL: Running for 50000 steps
ETITLE: TS BOND ANGLE DIHED IMPRP ELECT VDW BOUNDARY MISC KINETIC TOTAL TEMP POTENTIAL TOTAL3 TEMPAVG PRESSURE GPRESSURE VOLUME PRESSAVG GPRESSAVG
ENERGY: 125000 1.0399 4.3510 22.8509 0.0000 -21441.7107 3478.7809 0.0000 0.0000 1466.1291 -16468.5590 156.3776 -17934.6881 -16465.4832 156.3776 -393.6388 -338.7436 46216.6759 -393.6388 -338.7436
ENERGY: 135000 1.0169 5.4549 23.2942 0.0000 -20984.8143 3397.2666 0.0000 0.0000 1695.8926 -15861.8891 180.8843 -17557.7818 -15858.5017 179.9258 -153.3005 -125.4932 46727.2661 6.0231 6.6072
ENERGY: 145000 2.0891 5.0843 23.5983 0.0000 -20816.5281 3323.3388 0.0000 0.0000 1710.4408 -15751.9768 182.4360 -17462.4175 -15749.3244 180.9185 -397.1156 -323.8201 46935.0963 2.8389 3.5743
ENERGY: 155000 0.5979 3.8658 23.4055 0.0000 -20961.5991 3461.0442 0.0000 0.0000 1695.0977 -15777.5880 180.7995 -17472.6856 -15774.2246 180.8291 440.6089 487.2033 46370.8934 4.0027 4.5590
ENERGY: 165000 1.3142 2.3178 25.5602 0.0000 -20939.9197 3454.2165 0.0000 0.0000 1689.6737 -15766.8374 180.2210 -17456.5110 -15761.2792 180.3644 500.3958 541.1862 46190.3454 4.8581 4.8801
ENERGY: 175000 1.8180 1.7498 23.8156 0.0000 -21103.3131 3538.7271 0.0000 0.0000 1669.9958 -15867.2068 178.1221 -17537.2026 -15864.8272 179.9147 840.8361 853.0919 45802.2284 2.8737 2.1348
TCL: Running 50000 steps at 210 kelvin.
TCL: Setting parameter langevinTemp to 210
TCL: Running for 50000 steps
ETITLE: TS BOND ANGLE DIHED IMPRP ELECT VDW BOUNDARY MISC KINETIC TOTAL TEMP POTENTIAL TOTAL3 TEMPAVG PRESSURE GPRESSURE VOLUME PRESSAVG GPRESSAVG
ENERGY: 175000 1.8180 1.7498 23.8156 0.0000 -21103.3131 3538.7271 0.0000 0.0000 1669.1683 -15868.0343 178.0339 -17537.2026 -15865.5346 178.0339 796.0207 852.4242 45802.2284 796.0207 852.4242
ENERGY: 185000 0.9062 5.0082 23.8838 0.0000 -20040.3789 3165.3246 0.0000 0.0000 2024.6708 -14820.5852 215.9518 -16845.2560 -14813.9094 210.2338 597.7585 699.5026 46045.8072 2.2447 2.2111
ENERGY: 195000 0.6900 4.8467 23.8920 0.0000 -19929.0776 3100.9611 0.0000 0.0000 1937.1894 -14861.4984 206.6210 -16798.6877 -14858.5308 209.5138 353.1454 461.9572 45681.7149 8.4939 8.7362
ENERGY: 205000 0.7417 3.8170 25.7477 0.0000 -19988.6062 3124.4014 0.0000 0.0000 1998.3225 -14835.5759 213.1415 -16833.8984 -14833.5048 209.5058 257.4683 320.5373 46384.6674 5.2731 5.3010
ENERGY: 215000 1.0063 5.1182 24.0133 0.0000 -19864.0449 3050.6597 0.0000 0.0000 1981.1987 -14802.0487 211.3151 -16783.2473 -14798.3030 211.4588 63.1725 145.0844 46014.2282 -0.8542 -0.3251
ENERGY: 225000 1.0627 3.2929 24.6018 0.0000 -19845.5584 2994.7473 0.0000 0.0000 1960.5987 -14861.2551 209.1179 -16821.8537 -14855.4895 211.6806 -330.5578 -222.6662 46107.0698 4.4354 4.4436
TCL: Running 50000 steps at 240 kelvin.
TCL: Setting parameter langevinTemp to 240
TCL: Running for 50000 steps
ETITLE: TS BOND ANGLE DIHED IMPRP ELECT VDW BOUNDARY MISC KINETIC TOTAL TEMP POTENTIAL TOTAL3 TEMPAVG PRESSURE GPRESSURE VOLUME PRESSAVG GPRESSAVG
ENERGY: 225000 1.0627 3.2929 24.6018 0.0000 -19845.5584 2994.7473 0.0000 0.0000 1959.5936 -14862.2602 209.0107 -16821.8537 -14859.0989 209.0107 -291.7458 -222.1635 46107.0698 -291.7458 -222.1635
ENERGY: 235000 1.5100 6.5726 25.5306 0.0000 -18799.7075 2671.3191 0.0000 0.0000 2312.4539 -13782.3213 246.6468 -16094.7752 -13774.9582 240.1230 -360.7009 -282.5018 46417.2459 -2.2789 -1.7576
ENERGY: 245000 2.1077 5.9445 23.6181 0.0000 -18882.7548 2771.7150 0.0000 0.0000 2259.3876 -13819.9819 240.9868 -16079.3695 -13819.6782 241.7755 335.2153 430.3615 45976.7322 -0.5977 -0.0727
ENERGY: 255000 1.0353 4.3740 23.6565 0.0000 -18860.6223 2705.7165 0.0000 0.0000 2246.0407 -13879.7994 239.5632 -16125.8400 -13873.0158 237.8276 -268.5233 -227.8299 46774.5725 5.3704 5.4278
ENERGY: 265000 3.4077 4.4436 22.5524 0.0000 -18878.4538 2748.2699 0.0000 0.0000 2209.2637 -13890.5166 235.6405 -16099.7803 -13882.0127 239.7450 -93.2318 -29.4443 46475.5818 6.1558 6.1854
ENERGY: 275000 1.4648 2.5874 24.3159 0.0000 -18662.7134 2607.9259 0.0000 0.0000 2253.0402 -13773.3791 240.3098 -16026.4193 -13768.6714 241.0072 -650.7568 -575.9693 46511.1721 1.2488 1.4346
TCL: Running 50000 steps at 270 kelvin.
TCL: Setting parameter langevinTemp to 270
TCL: Running for 50000 steps
ETITLE: TS BOND ANGLE DIHED IMPRP ELECT VDW BOUNDARY MISC KINETIC TOTAL TEMP POTENTIAL TOTAL3 TEMPAVG PRESSURE GPRESSURE VOLUME PRESSAVG GPRESSAVG
ENERGY: 275000 1.4648 2.5874 24.3159 0.0000 -18662.7134 2607.9259 0.0000 0.0000 2251.9376 -13774.4817 240.1921 -16026.4193 -13770.5982 240.1921 -655.8359 -575.5971 46511.1721 -655.8359 -575.5971
ENERGY: 285000 3.0155 4.7421 26.9367 0.0000 -17879.9469 2457.0546 0.0000 0.0000 2516.5575 -12871.6405 268.4166 -15388.1980 -12867.8368 270.4732 -178.0647 -115.6036 47570.6876 3.4528 3.3944
ENERGY: 295000 2.1038 5.4652 25.2823 0.0000 -17777.9205 2459.5814 0.0000 0.0000 2540.0320 -12745.4559 270.9204 -15285.4879 -12739.4539 271.4008 107.1951 171.8493 47496.9814 4.0381 3.4517
ENERGY: 305000 3.7324 4.4215 24.6360 0.0000 -17904.4115 2550.4246 0.0000 0.0000 2523.8355 -12797.3615 269.1928 -15321.1970 -12791.9499 270.5776 270.8848 317.8501 47520.5707 4.1155 3.5797
ENERGY: 315000 2.3912 4.9194 24.0484 0.0000 -18046.9810 2555.4874 0.0000 0.0000 2491.4664 -12968.6682 265.7403 -15460.1346 -12964.0325 271.2994 148.9004 232.2503 47019.1684 3.4311 2.5120
ENERGY: 325000 4.7736 7.2624 24.4347 0.0000 -18016.3412 2608.1961 0.0000 0.0000 2626.8380 -12744.8364 280.1791 -15371.6745 -12739.3241 272.1532 596.9052 685.2999 47350.6614 -3.8632 -3.6848
TCL: Running 1000000 steps at 300 kelvin.
TCL: Setting parameter langevinTemp to 300
TCL: Running for 1000000 steps
ETITLE: TS BOND ANGLE DIHED IMPRP ELECT VDW BOUNDARY MISC KINETIC TOTAL TEMP POTENTIAL TOTAL3 TEMPAVG PRESSURE GPRESSURE VOLUME PRESSAVG GPRESSAVG
ENERGY: 325000 4.7736 7.2624 24.4347 0.0000 -18016.3412 2608.1961 0.0000 0.0000 2625.6038 -12746.0707 280.0475 -15371.6745 -12742.5864 280.0475 613.8434 686.8251 47350.6614 613.8434 686.8251
ENERGY: 525000 3.1533 4.2508 25.0688 0.0000 -17110.0896 2281.3872 0.0000 0.0000 2837.9757 -11958.2538 302.6991 -14796.2295 -11950.5615 301.6756 -307.2852 -222.4191 48905.8431 6.1962 6.1682
ENERGY: 725000 1.0943 4.5975 24.1953 0.0000 -17275.8920 2413.0240 0.0000 0.0000 2761.5272 -12071.4538 294.5451 -14832.9810 -12066.0713 299.9813 519.0028 633.8244 48128.0455 2.3924 2.9328
ENERGY: 925000 1.2394 4.5960 27.1960 0.0000 -17331.7353 2446.9987 0.0000 0.0000 2811.3950 -12040.3102 299.8640 -14851.7052 -12035.7996 301.0165 839.0208 860.8105 48057.1769 6.7243 6.5150
ENERGY: 1125000 0.5976 6.9062 25.5786 0.0000 -17009.3633 2231.6869 0.0000 0.0000 2773.6334 -11970.9606 295.8363 -14744.5940 -11965.1983 299.8270 -489.8680 -404.0597 49430.3327 -0.2537 -0.3422
ENERGY: 1325000 1.0254 10.7089 24.7705 0.0000 -17159.9255 2281.7464 0.0000 0.0000 2812.0844 -12029.5898 299.9375 -14841.6743 -12022.4157 299.4764 -97.8147 -52.9814 48406.6295 -1.3821 -1.6020
TCL: Exiting due to exit command.
