Info: SIMULATION PARAMETERS:
Info: TIMESTEP               2
Info: NUMBER OF STEPS        0
Info: STEPS PER CYCLE        10
Info: PERIODIC CELL BASIS 1  30.7049 0 0
Info: PERIODIC CELL BASIS 2  0 31.0779 0
Info: PERIODIC CELL BASIS 3  0 0 31.2824
Info: PERIODIC CELL CENTER   0 0 0
Info: WRAPPING WATERS AROUND PERIODIC BOUNDARIES ON OUTPUT.
Info: WRAPPING ALL CLUSTERS AROUND PERIODIC BOUNDARIES ON OUTPUT.
Info: FIRST LDB TIMESTEP     50
Info: LAST LDB TIMESTEP     -1
Info: HOM BACKGROUND SCALING 1
Info: PME BACKGROUND SCALING 1
Info: MIN ATOMS PER PATCH    40
Info: EMPTY PATCH LOAD       40 ATOMS
Info: VELOCITY FILE          mobley_8882696_equil.vel
Info: CENTER OF MASS MOVING INITIALLY? NO
Info: DIELECTRIC             1
Info: EXCLUDE                SCALED ONE-FOUR
Info: 1-4 ELECTROSTATICS SCALED BY 0.833333
Info: MODIFIED 1-4 VDW PARAMETERS WILL BE USED
Info: DCD FILENAME           mobley_8882696_prod.dcd
Info: DCD FREQUENCY          100000
Info: DCD FIRST STEP         100000
Info: DCD FILE WILL CONTAIN UNIT CELL DATA
Info: XST FILENAME           mobley_8882696_prod.xst
Info: XST FREQUENCY          100000
Info: NO VELOCITY DCD OUTPUT
Info: NO FORCE DCD OUTPUT
Info: OUTPUT FILENAME        mobley_8882696_prod
Info: BINARY OUTPUT FILES WILL BE USED
Info: RESTART FILENAME       mobley_8882696_prod.restart
Info: RESTART FREQUENCY      100000
Info: BINARY RESTART FILES WILL BE USED
Info: CUTOFF                 9
Info: PAIRLIST DISTANCE      11
Info: PAIRLIST SHRINK RATE   0.01
Info: PAIRLIST GROW RATE     0.01
Info: PAIRLIST TRIGGER       0.3
Info: PAIRLISTS PER CYCLE    2
Info: PAIRLISTS ENABLED
Info: MARGIN                 2
Info: HYDROGEN GROUP CUTOFF  2.5
Info: PATCH DIMENSION        15.5
Info: ENERGY OUTPUT STEPS    100000
Info: ENERGY EVALUATION STEPS    100000
Info: OUTPUT ENERGY PRECISION 4
Info: CROSSTERM ENERGY INCLUDED IN DIHEDRAL
Info: TIMING OUTPUT STEPS    1000000
Info: PRESSURE OUTPUT STEPS  100000
Info: ALCHEMICAL FEP ON
Info: FEP CURRENT LAMBDA VALUE     1
Info: FEP COMPARISON LAMBDA VALUE  0.95
Info: FEP INTRA-ALCHEMICAL NON-BONDED INTERACTIONS WILL BE RETAINED
Info: FEP INTRA-ALCHEMICAL BONDED INTERACTIONS WILL BE RETAINED
Info: FEP VDW SHIFTING COEFFICIENT 5
Info: FEP ELEC. ACTIVE FOR ANNIHILATED PARTICLES BETWEEN LAMBDA = 0 AND LAMBDA = 0.5
Info: FEP ELEC. ACTIVE FOR EXNIHILATED PARTICLES BETWEEN LAMBDA = 0.5 AND LAMBDA = 1
Info: FEP VDW ACTIVE FOR ANNIHILATED PARTICLES BETWEEN LAMBDA = 0 AND LAMBDA = 1
Info: FEP VDW ACTIVE FOR EXNIHILATED PARTICLES BETWEEN LAMBDA = 0 AND LAMBDA = 1
Info: FEP BOND ACTIVE FOR ANNIHILATED PARTICLES BETWEEN LAMBDA = 1 AND LAMBDA = 1
Info: FEP BOND ACTIVE FOR EXNIHILATED PARTICLES BETWEEN LAMBDA = 0 AND LAMBDA = 0
Info: LANGEVIN DYNAMICS ACTIVE
Info: LANGEVIN TEMPERATURE   300
Info: LANGEVIN USING BBK INTEGRATOR
Info: LANGEVIN DAMPING COEFFICIENT IS 1 INVERSE PS
Info: LANGEVIN DYNAMICS APPLIED TO HYDROGENS
Info: LANGEVIN PISTON PRESSURE CONTROL ACTIVE
Info:        TARGET PRESSURE IS 1.01325 BAR
Info:     OSCILLATION PERIOD IS 50 FS
Info:             DECAY TIME IS 25 FS
Info:     PISTON TEMPERATURE IS 300 K
Info:       PRESSURE CONTROL IS GROUP-BASED
Info:    INITIAL STRAIN RATE IS 7.6418e-05 7.6418e-05 7.6418e-05
Info:       CELL FLUCTUATION IS ISOTROPIC
Info: PARTICLE MESH EWALD (PME) ACTIVE
Info: PME TOLERANCE               1e-06
Info: PME EWALD COEFFICIENT       0.348832
Info: PME INTERPOLATION ORDER     4
Info: PME GRID DIMENSIONS         32 32 32
Info: PME MAXIMUM GRID SPACING    1
Info: PME CALCULATION WILL BE PERFORMED ON GPU
Info: FULL ELECTROSTATIC EVALUATION FREQUENCY      2
Info: USING VERLET I (r-RESPA) MTS SCHEME.
Info: C1 SPLITTING OF LONG RANGE ELECTROSTATICS
Info: PLACING ATOMS IN PATCHES BY HYDROGEN GROUPS
Info: RIGID BONDS TO HYDROGEN : ALL
Info:         ERROR TOLERANCE : 1e-08
Info:          MAX ITERATIONS : 100
Info: RIGID WATER USING SETTLE ALGORITHM
Info: RANDOM NUMBER SEED     1742236357
Info: USE HYDROGEN BONDS?    NO
Info: Using AMBER format force field!
Info: AMBER PARM FILE        mobley_8882696.prmtop
Info: COORDINATE PDB         mobley_8882696.pdb
Info: Exclusions will be read from PARM file!
Info: SCNB (VDW SCALING)     2
Info: USING ARITHMETIC MEAN TO COMBINE L-J SIGMA PARAMETERS
Info: BINARY COORDINATES     mobley_8882696_equil.coor
Info: SUMMARY OF PARAMETERS:
Info: 6 BONDS
Info: 8 ANGLES
Info:   8 HARMONIC
Info:   0 COSINE-BASED
Info: 10 DIHEDRAL
Info: 0 IMPROPER
Info: 0 CROSSTERM
Info: 0 VDW
Info: 21 VDW_PAIRS
Info: 0 NBTHOLE_PAIRS
Info: To read alchdata from file: mobley_8882696.pdb
Info: To read alchflag data from column: 5
Info: STRUCTURE SUMMARY:
Info: 2902 ATOMS
Info: 2902 BONDS
Info: 25 ANGLES
Info: 41 DIHEDRALS
Info: 0 IMPROPERS
Info: 0 CROSSTERMS
Info: 2955 EXCLUSIONS
Info: 2897 RIGID BONDS
Info: ALCH: 0 ATOMS TO DISAPPEAR IN FINAL STATE
Info: ALCH: 13 ATOMS TO APPEAR IN FINAL STATE
Info: 5809 DEGREES OF FREEDOM
Info: 968 HYDROGEN GROUPS
Info: 3 ATOMS IN LARGEST HYDROGEN GROUP
Info: 968 MIGRATION GROUPS
Info: 3 ATOMS IN LARGEST MIGRATION GROUP
Info: TOTAL MASS = 17421.5 amu
Info: TOTAL CHARGE = -0.000100002 e
Info: MASS DENSITY = 0.969139 g/cm^3
Info: ATOM DENSITY = 0.0972161 atoms/A^3
Info: ADDED 0 IMPLICIT EXCLUSIONS
Info: NONBONDED TABLE R-SQUARED SPACING: 0.0625
Info: NONBONDED TABLE SIZE: 705 POINTS
Info: REMOVING COM VELOCITY 0.380583 -0.0682187 -0.045446
Info: Use 3D box decompostion in PME FFT.
Info: Updated CUDA force table with 4096 elements.
Info: Updated CUDA LJ table with 6 x 6 elements.
Info: Found 16 unique exclusion lists needing 32 bytes
TCL: Running for 1500000 steps
ETITLE: TS BOND ANGLE DIHED IMPRP ELECT VDW BOUNDARY MISC KINETIC TOTAL TEMP POTENTIAL TOTALAVG TEMPAVG PRESSURE GPRESSURE VOLUME PRESSAVG GPRESSAVG
ENERGY: 0 0.4212 12.1111 7.3759 0.0000 -10568.3098 1448.9663 0.0000 0.0000 1670.4773 -7428.9580 289.4207 -9099.4353 -7428.9580 289.4207 177.0094 273.7954 29851.0209 177.0094 273.7954
ENERGY: 300000 1.2276 13.9304 7.8479 0.0000 -10682.4088 1453.8427 0.0000 0.0000 1785.2807 -7420.2795 309.3111 -9205.5602 -7386.2954 298.4347 16.8671 43.3881 29911.6976 -164.8447 -118.7899
ENERGY: 600000 1.3322 7.5808 10.8737 0.0000 -10578.0973 1455.8331 0.0000 0.0000 1721.9424 -7380.5351 298.3374 -9102.4775 -7390.6519 298.9482 410.6983 485.4830 29742.9033 -35.2900 26.0043
ENERGY: 900000 2.6201 13.7019 9.6511 0.0000 -10434.2221 1362.5250 0.0000 0.0000 1749.2744 -7296.4495 303.0728 -9045.7239 -7382.5861 299.9477 -651.7755 -548.6168 30398.6788 -66.8968 3.7939
ENERGY: 1200000 0.7083 10.1924 9.0896 0.0000 -10522.5597 1432.0860 0.0000 0.0000 1762.4819 -7308.0015 305.3611 -9070.4834 -7380.5438 300.1297 287.7513 262.1339 29926.1469 -48.4493 6.8430
ENERGY: 1500000 0.7812 9.7537 8.2186 0.0000 -10437.7616 1296.2058 0.0000 0.0000 1771.5601 -7351.2422 306.9339 -9122.8023 -7381.9978 300.0853 -1007.5016 -951.4414 30307.8255 -135.7697 -82.2321
TCL: Running FEP window   2: Lambda1 0.95   Lambda2 0.8999999999999999 [dLambda -0.050000000000000044]
TCL: Setting parameter firsttimestep to 0
TCL: Setting parameter alchLambda to 0.95
Info: NONBONDED TABLE R-SQUARED SPACING: 0.0625
Info: NONBONDED TABLE SIZE: 705 POINTS
TCL: Setting parameter alchLambda2 to 0.8999999999999999
Info: NONBONDED TABLE R-SQUARED SPACING: 0.0625
Info: NONBONDED TABLE SIZE: 705 POINTS
TCL: Running for 1500000 steps
ETITLE: TS BOND ANGLE DIHED IMPRP ELECT VDW BOUNDARY MISC KINETIC TOTAL TEMP POTENTIAL TOTALAVG TEMPAVG PRESSURE GPRESSURE VOLUME PRESSAVG GPRESSAVG
ENERGY: 0 0.7812 9.7537 8.2186 0.0000 -10436.8649 1295.9111 0.0000 0.0000 1770.6628 -7351.5375 306.7785 -9122.2003 -7351.5375 306.7785 -1044.4433 -965.3920 30307.8255 -1044.4433 -965.3920
ENERGY: 300000 0.1272 6.9734 11.7183 0.0000 -10624.3781 1415.4541 0.0000 0.0000 1683.0322 -7507.0729 291.5959 -9190.1051 -7396.4704 300.4932 23.9644 44.2939 29301.9617 -116.7114 -53.3605
ENERGY: 600000 1.9825 14.3245 7.8698 0.0000 -10465.7718 1399.4631 0.0000 0.0000 1755.3270 -7286.8049 304.1214 -9042.1319 -7352.5808 303.0515 -237.3457 -114.6409 29978.7614 -144.7414 -64.1242
ENERGY: 900000 2.6224 11.6449 9.7298 0.0000 -10474.1425 1368.3779 0.0000 0.0000 1703.1135 -7378.6539 295.0751 -9081.7674 -7347.1375 301.6288 -136.4477 -95.2632 29920.6040 -40.3593 28.6653
ENERGY: 1200000 1.2273 11.5852 9.5603 0.0000 -10654.4177 1496.7705 0.0000 0.0000 1697.7687 -7437.5056 294.1491 -9135.2743 -7347.5230 302.2370 471.9014 550.6287 29522.7365 -17.4407 51.4215
ENERGY: 1500000 0.9196 14.2857 7.4376 0.0000 -10644.8985 1398.8279 0.0000 0.0000 1705.4360 -7517.9917 295.4775 -9223.4277 -7360.4373 301.2768 -458.1782 -390.8555 29615.5196 46.2093 111.8554
TCL: Running FEP window   3: Lambda1 0.8999999999999999 Lambda2 0.8499999999999999 [dLambda -0.050000000000000044]
TCL: Setting parameter firsttimestep to 0
TCL: Setting parameter alchLambda to 0.8999999999999999
Info: NONBONDED TABLE R-SQUARED SPACING: 0.0625
Info: NONBONDED TABLE SIZE: 705 POINTS
TCL: Setting parameter alchLambda2 to 0.8499999999999999
Info: NONBONDED TABLE R-SQUARED SPACING: 0.0625
Info: NONBONDED TABLE SIZE: 705 POINTS
TCL: Running for 1500000 steps
ETITLE: TS BOND ANGLE DIHED IMPRP ELECT VDW BOUNDARY MISC KINETIC TOTAL TEMP POTENTIAL TOTALAVG TEMPAVG PRESSURE GPRESSURE VOLUME PRESSAVG GPRESSAVG
ENERGY: 0 0.9196 14.2857 7.4376 0.0000 -10644.4015 1398.9688 0.0000 0.0000 1704.5887 -7518.2012 295.3307 -9222.7899 -7518.2012 295.3307 -469.5792 -399.4514 29615.5196 -469.5792 -399.4514
ENERGY: 300000 1.3562 9.9266 8.6141 0.0000 -10481.7993 1405.6789 0.0000 0.0000 1753.6311 -7302.5925 303.8276 -9056.2236 -7402.3295 300.2397 -51.6035 -28.1300 30224.8340 -206.2405 -148.9973
ENERGY: 600000 2.6415 10.7621 8.3513 0.0000 -10339.4170 1256.6250 0.0000 0.0000 1736.1451 -7324.8920 300.7981 -9061.0371 -7362.7371 300.8808 -1305.5497 -1277.8390 30193.1067 -168.2451 -118.8671
ENERGY: 900000 1.9103 8.6156 10.0515 0.0000 -10562.5862 1440.2322 0.0000 0.0000 1773.6159 -7328.1606 307.2901 -9101.7765 -7350.8409 300.6747 280.0936 319.7625 29757.1754 -141.8193 -97.2687
ENERGY: 1200000 0.3860 6.4981 10.5034 0.0000 -10622.8336 1469.4087 0.0000 0.0000 1709.7213 -7426.3160 296.2200 -9136.0373 -7357.7251 301.6280 86.5178 168.2829 30111.0810 -8.1577 36.1673
ENERGY: 1500000 0.1805 6.1597 12.2167 0.0000 -10420.3519 1363.4704 0.0000 0.0000 1700.9957 -7337.3288 294.7082 -9038.3245 -7355.4736 301.3026 -417.0102 -372.7954 30312.9892 10.7595 56.8498
TCL: Running FEP window   4: Lambda1 0.8499999999999999 Lambda2 0.7999999999999998 [dLambda -0.050000000000000044]
TCL: Setting parameter firsttimestep to 0
TCL: Setting parameter alchLambda to 0.8499999999999999
Info: NONBONDED TABLE R-SQUARED SPACING: 0.0625
Info: NONBONDED TABLE SIZE: 705 POINTS
TCL: Setting parameter alchLambda2 to 0.7999999999999998
Info: NONBONDED TABLE R-SQUARED SPACING: 0.0625
Info: NONBONDED TABLE SIZE: 705 POINTS
TCL: Running for 1500000 steps
ETITLE: TS BOND ANGLE DIHED IMPRP ELECT VDW BOUNDARY MISC KINETIC TOTAL TEMP POTENTIAL TOTALAVG TEMPAVG PRESSURE GPRESSURE VOLUME PRESSAVG GPRESSAVG
ENERGY: 0 0.1805 6.1597 12.2167 0.0000 -10419.4672 1362.9531 0.0000 0.0000 1700.1393 -7337.8179 294.5598 -9037.9571 -7337.8179 294.5598 -462.9260 -383.2098 30312.9892 -462.9260 -383.2098
ENERGY: 300000 0.6431 8.7484 7.6287 0.0000 -10544.3223 1436.3727 0.0000 0.0000 1746.3141 -7344.6153 302.5599 -9090.9294 -7317.3822 300.1467 315.4463 312.5557 29719.1274 72.1957 131.5130
ENERGY: 600000 0.4532 9.0184 7.4973 0.0000 -10466.3379 1367.2392 0.0000 0.0000 1769.7627 -7312.3672 306.6225 -9082.1299 -7349.0334 298.7212 -335.2503 -249.1545 29777.1466 -71.4484 11.8124
ENERGY: 900000 2.2827 7.3622 9.2074 0.0000 -10497.9845 1433.3791 0.0000 0.0000 1744.3402 -7301.4129 302.2179 -9045.7530 -7345.7552 300.4882 220.1927 263.6504 29894.7832 -35.7690 31.5697
ENERGY: 1200000 3.2919 8.3313 8.8185 0.0000 -10564.8323 1446.9000 0.0000 0.0000 1777.8167 -7319.6739 308.0179 -9097.4906 -7359.9011 300.2217 -34.5076 5.6003 30313.3083 -7.5572 57.0377
ENERGY: 1500000 1.0043 11.4825 8.2848 0.0000 -10558.6754 1457.4370 0.0000 0.0000 1732.0525 -7348.4142 300.0890 -9080.4667 -7353.2127 300.1897 144.3814 263.9830 30202.9322 23.4245 88.5147
TCL: Running FEP window   5: Lambda1 0.7999999999999998 Lambda2 0.7499999999999998 [dLambda -0.050000000000000044]
TCL: Setting parameter firsttimestep to 0
TCL: Setting parameter alchLambda to 0.7999999999999998
Info: NONBONDED TABLE R-SQUARED SPACING: 0.0625
Info: NONBONDED TABLE SIZE: 705 POINTS
TCL: Setting parameter alchLambda2 to 0.7499999999999998
Info: NONBONDED TABLE R-SQUARED SPACING: 0.0625
Info: NONBONDED TABLE SIZE: 705 POINTS
TCL: Running for 1500000 steps
ETITLE: TS BOND ANGLE DIHED IMPRP ELECT VDW BOUNDARY MISC KINETIC TOTAL TEMP POTENTIAL TOTALAVG TEMPAVG PRESSURE GPRESSURE VOLUME PRESSAVG GPRESSAVG
ENERGY: 0 1.0043 11.4825 8.2848 0.0000 -10557.3003 1457.1583 0.0000 0.0000 1731.1838 -7348.1865 299.9385 -9079.3703 -7348.1865 299.9385 162.6534 254.9135 30202.9322 162.6534 254.9135
ENERGY: 300000 0.4560 6.0161 9.2504 0.0000 -10453.8129 1401.4061 0.0000 0.0000 1718.3926 -7318.2917 297.7223 -9036.6843 -7314.8074 303.0661 266.4132 298.2858 29567.4471 -107.1917 10.2181
ENERGY: 600000 1.2582 9.8305 9.3394 0.0000 -10538.1995 1411.9016 0.0000 0.0000 1740.0310 -7365.8389 301.4713 -9105.8699 -7335.8671 302.2326 -27.0566 9.5634 29860.7760 -11.9432 82.0076
ENERGY: 900000 1.2841 10.6696 7.4306 0.0000 -10637.0117 1450.9932 0.0000 0.0000 1724.3592 -7442.2749 298.7561 -9166.6341 -7352.8587 301.9203 38.4496 107.5735 29675.9138 124.5955 208.6860
ENERGY: 1200000 0.2827 6.7178 10.5891 0.0000 -10500.2464 1369.6186 0.0000 0.0000 1688.2969 -7424.7413 292.5081 -9113.0382 -7359.1313 300.9423 -605.9853 -566.2533 30184.3276 111.4894 186.7214
ENERGY: 1500000 2.7220 7.9809 9.2504 0.0000 -10583.4699 1454.0357 0.0000 0.0000 1701.2179 -7408.2629 294.7467 -9109.4808 -7362.9657 301.1580 274.5854 286.4295 29798.3134 120.2203 190.9596
TCL: Running FEP window   6: Lambda1 0.7499999999999998 Lambda2 0.6999999999999997 [dLambda -0.050000000000000044]
TCL: Setting parameter firsttimestep to 0
TCL: Setting parameter alchLambda to 0.7499999999999998
Info: NONBONDED TABLE R-SQUARED SPACING: 0.0625
Info: NONBONDED TABLE SIZE: 705 POINTS
TCL: Setting parameter alchLambda2 to 0.6999999999999997
Info: NONBONDED TABLE R-SQUARED SPACING: 0.0625
Info: NONBONDED TABLE SIZE: 705 POINTS
TCL: Running for 1500000 steps
ETITLE: TS BOND ANGLE DIHED IMPRP ELECT VDW BOUNDARY MISC KINETIC TOTAL TEMP POTENTIAL TOTALAVG TEMPAVG PRESSURE GPRESSURE VOLUME PRESSAVG GPRESSAVG
ENERGY: 0 2.7220 7.9809 9.2504 0.0000 -10582.9719 1454.2257 0.0000 0.0000 1700.3489 -7408.4440 294.5961 -9108.7929 -7408.4440 294.5961 206.6399 284.7351 29798.3134 206.6399 284.7351
ENERGY: 300000 0.9960 11.8373 9.6128 0.0000 -10546.3342 1447.3935 0.0000 0.0000 1729.5697 -7346.9249 299.6588 -9076.4946 -7365.1971 297.0224 485.2269 454.6759 29624.8027 -56.9789 -14.9175
ENERGY: 600000 1.0639 9.6255 8.3307 0.0000 -10425.7890 1338.2699 0.0000 0.0000 1725.1103 -7343.3887 298.8862 -9068.4990 -7385.6345 295.4259 -701.3836 -600.7532 30081.9000 -216.7731 -152.6733
ENERGY: 900000 1.0341 10.5217 10.8684 0.0000 -10503.8962 1397.0128 0.0000 0.0000 1738.5388 -7345.9204 301.2128 -9084.4591 -7359.2305 297.7551 -113.1731 -72.4565 29804.9020 -103.8636 -49.7882
ENERGY: 1200000 1.0018 6.7195 12.2213 0.0000 -10671.4641 1483.6191 0.0000 0.0000 1765.6756 -7402.2267 305.9144 -9167.9023 -7359.7262 298.8926 126.1705 266.5866 30109.1034 -37.5822 23.2434
ENERGY: 1500000 3.6372 9.9970 10.3289 0.0000 -10417.7475 1338.9457 0.0000 0.0000 1693.3516 -7361.4872 293.3838 -9054.8388 -7357.3932 297.6362 -692.8084 -636.0559 30010.9804 -70.7097 -9.6937
TCL: Running FEP window   7: Lambda1 0.6999999999999997 Lambda2 0.6499999999999997 [dLambda -0.050000000000000044]
TCL: Setting parameter firsttimestep to 0
TCL: Setting parameter alchLambda to 0.6999999999999997
Info: NONBONDED TABLE R-SQUARED SPACING: 0.0625
Info: NONBONDED TABLE SIZE: 705 POINTS
TCL: Setting parameter alchLambda2 to 0.6499999999999997
Info: NONBONDED TABLE R-SQUARED SPACING: 0.0625
Info: NONBONDED TABLE SIZE: 705 POINTS
TCL: Running for 1500000 steps
ETITLE: TS BOND ANGLE DIHED IMPRP ELECT VDW BOUNDARY MISC KINETIC TOTAL TEMP POTENTIAL TOTALAVG TEMPAVG PRESSURE GPRESSURE VOLUME PRESSAVG GPRESSAVG
ENERGY: 0 3.6372 9.9970 10.3289 0.0000 -10417.4129 1338.9498 0.0000 0.0000 1692.4790 -7362.0211 293.2326 -9054.5001 -7362.0211 293.2326 -718.3653 -644.0957 30010.9804 -718.3653 -644.0957
ENERGY: 300000 1.2525 9.3650 10.2276 0.0000 -10594.9930 1532.7436 0.0000 0.0000 1732.0211 -7309.3832 300.0835 -9041.4043 -7395.6439 294.3841 1423.3038 1465.7902 29095.0805 164.4856 207.2802
ENERGY: 600000 2.0932 8.8082 7.6904 0.0000 -10519.3556 1373.3696 0.0000 0.0000 1779.7014 -7347.6928 308.3445 -9127.3942 -7376.8541 298.4047 -581.8953 -482.2924 30083.1025 -66.1125 -24.8420
ENERGY: 900000 1.4549 10.5830 7.5633 0.0000 -10511.1866 1419.2363 0.0000 0.0000 1738.9502 -7333.3989 301.2841 -9072.3491 -7364.2545 299.3864 -46.0955 26.3090 30006.1899 13.7618 64.6219
ENERGY: 1200000 0.6701 8.1766 10.2209 0.0000 -10546.9566 1423.7935 0.0000 0.0000 1774.3253 -7329.7701 307.4130 -9104.0954 -7362.1448 301.2157 -18.0695 34.8099 29918.8612 -45.0495 11.2106
ENERGY: 1500000 1.4559 5.1864 9.6574 0.0000 -10471.6938 1361.4663 0.0000 0.0000 1722.0302 -7371.8976 298.3526 -9093.9278 -7365.8966 300.8531 -509.0088 -398.6618 29781.1089 -62.7547 -4.2593
TCL: Running FEP window   8: Lambda1 0.6499999999999997 Lambda2 0.5999999999999996 [dLambda -0.050000000000000044]
TCL: Setting parameter firsttimestep to 0
TCL: Setting parameter alchLambda to 0.6499999999999997
Info: NONBONDED TABLE R-SQUARED SPACING: 0.0625
Info: NONBONDED TABLE SIZE: 705 POINTS
TCL: Setting parameter alchLambda2 to 0.5999999999999996
Info: NONBONDED TABLE R-SQUARED SPACING: 0.0625
Info: NONBONDED TABLE SIZE: 705 POINTS
TCL: Running for 1500000 steps
ETITLE: TS BOND ANGLE DIHED IMPRP ELECT VDW BOUNDARY MISC KINETIC TOTAL TEMP POTENTIAL TOTALAVG TEMPAVG PRESSURE GPRESSURE VOLUME PRESSAVG GPRESSAVG
ENERGY: 0 1.4559 5.1864 9.6574 0.0000 -10470.5571 1361.2217 0.0000 0.0000 1721.1463 -7371.8894 298.1994 -9093.0356 -7371.8894 298.1994 -483.8009 -402.2686 29781.1089 -483.8009 -402.2686
ENERGY: 300000 1.6050 10.4536 8.6872 0.0000 -10591.4516 1409.7705 0.0000 0.0000 1744.0209 -7416.9144 302.1626 -9160.9353 -7362.6264 298.6412 -355.8923 -288.2830 29935.5262 -365.3689 -291.9999
ENERGY: 600000 0.5227 8.8463 9.1539 0.0000 -10697.4925 1488.8066 0.0000 0.0000 1755.2560 -7434.9070 304.1091 -9190.1630 -7378.8054 299.6960 258.1065 366.0234 29642.2765 -296.3216 -236.2850
ENERGY: 900000 1.1426 8.4990 9.6028 0.0000 -10539.5772 1419.3239 0.0000 0.0000 1764.8394 -7336.1694 305.7695 -9101.0088 -7360.7119 301.4182 -83.6665 26.6739 29990.8527 -247.7371 -184.6882
ENERGY: 1200000 1.8681 12.0305 8.1530 0.0000 -10483.0450 1387.4343 0.0000 0.0000 1685.2020 -7388.3572 291.9718 -9073.5592 -7361.5904 300.4347 -83.1775 0.0913 29625.3328 -361.6233 -295.3619
ENERGY: 1500000 0.6849 11.6150 8.1783 0.0000 -10499.0389 1395.2396 0.0000 0.0000 1693.1881 -7390.1330 293.3555 -9083.3211 -7363.0414 299.4453 -33.8703 48.1755 29685.9979 -303.7435 -239.3836
TCL: Running FEP window   9: Lambda1 0.5999999999999996 Lambda2 0.5499999999999996 [dLambda -0.050000000000000044]
TCL: Setting parameter firsttimestep to 0
TCL: Setting parameter alchLambda to 0.5999999999999996
Info: NONBONDED TABLE R-SQUARED SPACING: 0.0625
Info: NONBONDED TABLE SIZE: 705 POINTS
TCL: Setting parameter alchLambda2 to 0.5499999999999996
Info: NONBONDED TABLE R-SQUARED SPACING: 0.0625
Info: NONBONDED TABLE SIZE: 705 POINTS
TCL: Running for 1500000 steps
ETITLE: TS BOND ANGLE DIHED IMPRP ELECT VDW BOUNDARY MISC KINETIC TOTAL TEMP POTENTIAL TOTALAVG TEMPAVG PRESSURE GPRESSURE VOLUME PRESSAVG GPRESSAVG
ENERGY: 0 0.6849 11.6150 8.1783 0.0000 -10498.7946 1395.3979 0.0000 0.0000 1692.3566 -7390.5618 293.2114 -9082.9184 -7390.5618 293.2114 -38.3503 47.9814 29685.9979 -38.3503 47.9814
ENERGY: 300000 1.8115 8.8107 8.1010 0.0000 -10678.8636 1497.8631 0.0000 0.0000 1780.3637 -7381.9136 308.4592 -9162.2773 -7384.3787 299.9945 577.6300 633.2273 29432.7076 -64.2983 30.9928
ENERGY: 600000 0.3114 6.2987 10.5442 0.0000 -10495.0612 1397.9098 0.0000 0.0000 1726.0199 -7353.9773 299.0438 -9079.9971 -7370.2309 299.1802 -108.1737 -82.5720 29944.5703 -19.2509 40.8614
ENERGY: 900000 2.9468 10.6960 7.4784 0.0000 -10442.0530 1322.3593 0.0000 0.0000 1746.1669 -7352.4057 302.5344 -9098.5725 -7376.3345 299.4143 -897.4613 -775.9632 30142.8459 -14.7937 51.2954
ENERGY: 1200000 1.3879 11.7018 8.7101 0.0000 -10587.2626 1487.4276 0.0000 0.0000 1721.0762 -7356.9589 298.1873 -9078.0351 -7372.6108 299.5919 359.9945 410.9464 30072.4551 -0.8468 63.8431
ENERGY: 1500000 2.4103 8.9858 9.0076 0.0000 -10363.3050 1293.6749 0.0000 0.0000 1723.0515 -7326.1749 298.5295 -9049.2264 -7360.8196 300.1656 -1246.4939 -1148.6258 30653.5299 -41.1050 15.9373
TCL: Running FEP window  10: Lambda1 0.5499999999999996 Lambda2 0.4999999999999996 [dLambda -0.04999999999999999]
TCL: Setting parameter firsttimestep to 0
TCL: Setting parameter alchLambda to 0.5499999999999996
Info: NONBONDED TABLE R-SQUARED SPACING: 0.0625
Info: NONBONDED TABLE SIZE: 705 POINTS
TCL: Setting parameter alchLambda2 to 0.4999999999999996
Info: NONBONDED TABLE R-SQUARED SPACING: 0.0625
Info: NONBONDED TABLE SIZE: 705 POINTS
TCL: Running for 1500000 steps
ETITLE: TS BOND ANGLE DIHED IMPRP ELECT VDW BOUNDARY MISC KINETIC TOTAL TEMP POTENTIAL TOTALAVG TEMPAVG PRESSURE GPRESSURE VOLUME PRESSAVG GPRESSAVG
ENERGY: 0 2.4103 8.9858 9.0076 0.0000 -10362.9096 1293.8297 0.0000 0.0000 1722.1808 -7326.4955 298.3786 -9048.6762 -7326.4955 298.3786 -1222.3239 -1152.3779 30653.5299 -1222.3239 -1152.3779
ENERGY: 300000 0.4769 9.7087 9.3219 0.0000 -10365.6744 1336.9159 0.0000 0.0000 1770.4143 -7238.8366 306.7354 -9009.2509 -7318.8495 301.2686 -291.5304 -231.9433 29618.4496 -354.1514 -280.6389
ENERGY: 600000 0.9840 12.1654 8.5311 0.0000 -10444.4860 1384.4705 0.0000 0.0000 1770.1208 -7268.2141 306.6846 -9038.3349 -7317.5649 302.6448 -0.5867 55.3182 29905.7594 -216.5506 -139.5972
ENERGY: 900000 0.9016 8.0699 10.9878 0.0000 -10491.8770 1441.2658 0.0000 0.0000 1748.2275 -7282.4243 302.8914 -9030.6518 -7312.2666 302.8184 460.2098 498.7679 29806.5763 -101.5159 -28.3899
ENERGY: 1200000 1.0186 8.1672 8.4306 0.0000 -10483.0936 1332.0461 0.0000 0.0000 1731.4057 -7402.0255 299.9769 -9133.4312 -7326.8081 302.0787 -647.4598 -617.4996 29713.8091 -180.8052 -111.3978
ENERGY: 1500000 0.4457 8.9146 7.9411 0.0000 -10392.1506 1336.8226 0.0000 0.0000 1717.2600 -7320.7667 297.5261 -9038.0266 -7323.8546 301.1515 -549.2845 -519.4262 30220.9164 -228.8838 -163.2138
TCL: Running FEP window  11: Lambda1 0.4999999999999996 Lambda2 0.4499999999999996 [dLambda -0.04999999999999999]
TCL: Setting parameter firsttimestep to 0
TCL: Setting parameter alchLambda to 0.4999999999999996
Info: NONBONDED TABLE R-SQUARED SPACING: 0.0625
Info: NONBONDED TABLE SIZE: 705 POINTS
TCL: Setting parameter alchLambda2 to 0.4499999999999996
Info: NONBONDED TABLE R-SQUARED SPACING: 0.0625
Info: NONBONDED TABLE SIZE: 705 POINTS
TCL: Running for 1500000 steps
ETITLE: TS BOND ANGLE DIHED IMPRP ELECT VDW BOUNDARY MISC KINETIC TOTAL TEMP POTENTIAL TOTALAVG TEMPAVG PRESSURE GPRESSURE VOLUME PRESSAVG GPRESSAVG
ENERGY: 0 0.4457 8.9146 7.9411 0.0000 -10392.2871 1337.3272 0.0000 0.0000 1716.3853 -7321.2731 297.3746 -9037.6585 -7321.2731 297.3746 -604.3871 -520.2485 30220.9164 -604.3871 -520.2485
ENERGY: 300000 1.6512 6.6342 8.5252 0.0000 -10494.8231 1426.2864 0.0000 0.0000 1746.5510 -7305.1750 302.6009 -9051.7261 -7329.3562 299.2822 -59.4950 -1.7198 30208.1242 -199.7201 -127.4538
ENERGY: 600000 1.8167 7.9511 8.1087 0.0000 -10495.8904 1350.9750 0.0000 0.0000 1738.6151 -7388.4237 301.2260 -9127.0389 -7356.1409 297.3940 -520.6595 -487.5887 29765.5817 -87.8634 -30.2061
ENERGY: 900000 2.5763 10.0509 8.7664 0.0000 -10484.7478 1405.9905 0.0000 0.0000 1778.7141 -7278.6496 308.1734 -9057.3637 -7348.0251 299.1672 -66.9537 8.3918 29960.5718 -61.5316 -3.8341
ENERGY: 1200000 0.9455 7.7094 8.9066 0.0000 -10363.3983 1303.2610 0.0000 0.0000 1752.8693 -7289.7065 303.6956 -9042.5757 -7338.0121 300.8692 -545.4204 -520.8220 29733.8464 -125.8108 -68.3129
ENERGY: 1500000 0.3573 9.9482 7.0558 0.0000 -10607.0595 1498.4196 0.0000 0.0000 1715.8713 -7375.4072 297.2855 -9091.2785 -7349.9456 299.5789 592.2219 707.4503 29697.3014 -68.8260 -9.0708
TCL: Running FEP window  12: Lambda1 0.4499999999999996 Lambda2 0.39999999999999963 [dLambda -0.04999999999999999]
TCL: Setting parameter firsttimestep to 0
TCL: Setting parameter alchLambda to 0.4499999999999996
Info: NONBONDED TABLE R-SQUARED SPACING: 0.0625
Info: NONBONDED TABLE SIZE: 705 POINTS
TCL: Setting parameter alchLambda2 to 0.39999999999999963
Info: NONBONDED TABLE R-SQUARED SPACING: 0.0625
Info: NONBONDED TABLE SIZE: 705 POINTS
TCL: Running for 1500000 steps
ETITLE: TS BOND ANGLE DIHED IMPRP ELECT VDW BOUNDARY MISC KINETIC TOTAL TEMP POTENTIAL TOTALAVG TEMPAVG PRESSURE GPRESSURE VOLUME PRESSAVG GPRESSAVG
ENERGY: 0 0.3573 9.9482 7.0558 0.0000 -10607.0596 1498.1942 0.0000 0.0000 1714.9737 -7376.5304 297.1300 -9091.5041 -7376.5304 297.1300 619.1892 700.2031 29697.3014 619.1892 700.2031
ENERGY: 300000 0.7598 10.3136 7.2547 0.0000 -10613.5885 1471.1609 0.0000 0.0000 1725.1707 -7398.9288 298.8967 -9124.0994 -7367.4056 299.0652 96.6740 197.5269 30230.3686 163.9315 231.5933
ENERGY: 600000 0.6200 10.9857 10.1847 0.0000 -10446.1997 1369.5523 0.0000 0.0000 1654.5568 -7400.3002 286.6624 -9054.8569 -7370.4363 296.0657 -180.5507 -105.2983 29456.2847 209.2482 282.0226
ENERGY: 900000 1.8108 11.6262 7.8409 0.0000 -10531.6896 1428.1980 0.0000 0.0000 1700.7868 -7381.4268 294.6720 -9082.2136 -7350.4550 297.2107 -19.5521 64.1111 29699.2169 149.4630 212.5611
ENERGY: 1200000 0.7260 7.9458 8.4370 0.0000 -10581.4822 1463.7930 0.0000 0.0000 1731.7728 -7368.8076 300.0405 -9100.5804 -7353.1441 297.6733 355.5000 426.6467 29600.7285 54.1647 121.1126
ENERGY: 1500000 0.9232 10.0163 9.9685 0.0000 -10591.0357 1422.3790 0.0000 0.0000 1694.1420 -7453.6067 293.5207 -9147.7487 -7360.1162 298.0960 -137.2531 -73.8908 29459.5162 55.5399 119.9545
TCL: Running FEP window  13: Lambda1 0.39999999999999963 Lambda2 0.34999999999999964 [dLambda -0.04999999999999999]
TCL: Setting parameter firsttimestep to 0
TCL: Setting parameter alchLambda to 0.39999999999999963
Info: NONBONDED TABLE R-SQUARED SPACING: 0.0625
Info: NONBONDED TABLE SIZE: 705 POINTS
TCL: Setting parameter alchLambda2 to 0.34999999999999964
Info: NONBONDED TABLE R-SQUARED SPACING: 0.0625
Info: NONBONDED TABLE SIZE: 705 POINTS
TCL: Running for 1500000 steps
ETITLE: TS BOND ANGLE DIHED IMPRP ELECT VDW BOUNDARY MISC KINETIC TOTAL TEMP POTENTIAL TOTALAVG TEMPAVG PRESSURE GPRESSURE VOLUME PRESSAVG GPRESSAVG
ENERGY: 0 0.9232 10.0163 9.9685 0.0000 -10591.0349 1422.1849 0.0000 0.0000 1693.3306 -7454.6114 293.3802 -9147.9419 -7454.6114 293.3802 -162.2159 -81.9427 29459.5162 -162.2159 -81.9427
ENERGY: 300000 1.6567 8.4411 10.1441 0.0000 -10375.0883 1304.5584 0.0000 0.0000 1719.0329 -7331.2550 297.8333 -9050.2880 -7379.9653 295.0469 -692.6180 -649.8475 29697.1742 43.3071 103.6240
ENERGY: 600000 0.9788 6.3631 11.9518 0.0000 -10464.6845 1338.1394 0.0000 0.0000 1731.1940 -7376.0573 299.9403 -9107.2513 -7378.5516 296.3799 -619.0013 -567.8566 29901.0543 -178.0544 -117.0074
ENERGY: 900000 1.4522 8.2149 9.3716 0.0000 -10447.0512 1435.1818 0.0000 0.0000 1759.1006 -7233.7301 304.7752 -8992.8307 -7353.8984 297.8493 238.4504 316.6026 29815.6630 19.6064 80.8255
ENERGY: 1200000 2.8701 7.9914 8.0870 0.0000 -10426.7599 1387.8146 0.0000 0.0000 1725.1059 -7294.8910 298.8854 -9019.9968 -7359.6086 297.4618 -44.8628 21.6975 29820.1548 108.5393 168.7461
ENERGY: 1500000 3.5836 7.8895 9.0120 0.0000 -10617.5896 1495.6381 0.0000 0.0000 1761.8981 -7339.5684 305.2599 -9101.4665 -7358.5831 298.6069 889.3473 1007.7139 29220.7993 110.5862 174.4295
TCL: Running FEP window  14: Lambda1 0.34999999999999964 Lambda2 0.29999999999999966 [dLambda -0.04999999999999999]
TCL: Setting parameter firsttimestep to 0
TCL: Setting parameter alchLambda to 0.34999999999999964
Info: NONBONDED TABLE R-SQUARED SPACING: 0.0625
Info: NONBONDED TABLE SIZE: 705 POINTS
TCL: Setting parameter alchLambda2 to 0.29999999999999966
Info: NONBONDED TABLE R-SQUARED SPACING: 0.0625
Info: NONBONDED TABLE SIZE: 705 POINTS
TCL: Running for 1500000 steps
ETITLE: TS BOND ANGLE DIHED IMPRP ELECT VDW BOUNDARY MISC KINETIC TOTAL TEMP POTENTIAL TOTALAVG TEMPAVG PRESSURE GPRESSURE VOLUME PRESSAVG GPRESSAVG
ENERGY: 0 3.5836 7.8895 9.0120 0.0000 -10617.5890 1495.4492 0.0000 0.0000 1761.0197 -7340.6351 305.1077 -9101.6548 -7340.6351 305.1077 899.0636 1000.3451 29220.7993 899.0636 1000.3451
ENERGY: 300000 0.6866 9.0995 8.1578 0.0000 -10577.1682 1454.8526 0.0000 0.0000 1697.3997 -7406.9719 294.0852 -9104.3716 -7366.6364 296.5777 50.5839 136.2034 30183.4776 354.4921 453.2527
ENERGY: 600000 1.3419 7.8432 9.5502 0.0000 -10526.4505 1392.2310 0.0000 0.0000 1749.7242 -7365.7602 303.1507 -9115.4843 -7365.7072 298.3692 -185.9451 -133.1255 29714.8097 80.7696 151.4006
ENERGY: 900000 0.6504 12.3361 7.9725 0.0000 -10581.0869 1463.1069 0.0000 0.0000 1748.0314 -7348.9895 302.8574 -9097.0209 -7358.1417 298.2562 341.4166 406.8618 29659.9480 162.8022 240.5751
ENERGY: 1200000 0.9306 11.7013 10.2318 0.0000 -10546.0844 1378.9744 0.0000 0.0000 1718.2317 -7426.0146 297.6944 -9144.2462 -7361.0785 298.8768 -359.2032 -296.4122 29431.0911 113.1843 184.6056
ENERGY: 1500000 0.8599 9.8696 9.5193 0.0000 -10538.1693 1378.3775 0.0000 0.0000 1773.9142 -7365.6288 307.3418 -9139.5430 -7356.5979 299.5636 -432.5615 -387.8944 29847.0450 70.5027 138.4070
TCL: Running FEP window  15: Lambda1 0.29999999999999966 Lambda2 0.24999999999999967 [dLambda -0.04999999999999999]
TCL: Setting parameter firsttimestep to 0
TCL: Setting parameter alchLambda to 0.29999999999999966
Info: NONBONDED TABLE R-SQUARED SPACING: 0.0625
Info: NONBONDED TABLE SIZE: 705 POINTS
TCL: Setting parameter alchLambda2 to 0.24999999999999967
Info: NONBONDED TABLE R-SQUARED SPACING: 0.0625
Info: NONBONDED TABLE SIZE: 705 POINTS
TCL: Running for 1500000 steps
ETITLE: TS BOND ANGLE DIHED IMPRP ELECT VDW BOUNDARY MISC KINETIC TOTAL TEMP POTENTIAL TOTALAVG TEMPAVG PRESSURE GPRESSURE VOLUME PRESSAVG GPRESSAVG
ENERGY: 0 0.8599 9.8696 9.5193 0.0000 -10538.1686 1377.7770 0.0000 0.0000 1773.0373 -7367.1055 307.1899 -9140.1428 -7367.1055 307.1899 -488.0123 -395.5215 29847.0450 -488.0123 -395.5215
ENERGY: 300000 2.5393 10.7954 10.5680 0.0000 -10564.4936 1411.6859 0.0000 0.0000 1693.0467 -7435.8584 293.3310 -9128.9051 -7391.0440 298.7246 -177.6647 -166.7784 29760.8500 -72.1199 -10.6140
ENERGY: 600000 1.7150 8.6141 8.4433 0.0000 -10188.9662 1223.6964 0.0000 0.0000 1712.9419 -7233.5556 296.7779 -8946.4974 -7359.0813 299.2611 -1393.2978 -1340.4743 30420.7599 -223.0489 -155.8840
ENERGY: 900000 0.8373 10.4351 10.5351 0.0000 -10583.6342 1445.5347 0.0000 0.0000 1738.1076 -7378.1844 301.1381 -9116.2920 -7352.5337 300.1816 57.2745 57.0991 29976.3894 -230.6659 -163.5945
ENERGY: 1200000 1.8500 10.2277 8.6122 0.0000 -10550.9727 1460.1781 0.0000 0.0000 1699.5084 -7370.5964 294.4505 -9070.1047 -7364.7353 299.8617 112.7985 246.1141 29856.6677 -192.7756 -127.4701
ENERGY: 1500000 3.2662 11.9284 8.1932 0.0000 -10531.3109 1462.2029 0.0000 0.0000 1791.2466 -7254.4736 310.3447 -9045.7202 -7358.7015 300.5556 535.4784 540.7679 29975.4405 -98.6918 -34.3499
TCL: Running FEP window  16: Lambda1 0.24999999999999967 Lambda2 0.19999999999999968 [dLambda -0.04999999999999999]
TCL: Setting parameter firsttimestep to 0
TCL: Setting parameter alchLambda to 0.24999999999999967
Info: NONBONDED TABLE R-SQUARED SPACING: 0.0625
Info: NONBONDED TABLE SIZE: 705 POINTS
TCL: Setting parameter alchLambda2 to 0.19999999999999968
Info: NONBONDED TABLE R-SQUARED SPACING: 0.0625
Info: NONBONDED TABLE SIZE: 705 POINTS
TCL: Running for 1500000 steps
ETITLE: TS BOND ANGLE DIHED IMPRP ELECT VDW BOUNDARY MISC KINETIC TOTAL TEMP POTENTIAL TOTALAVG TEMPAVG PRESSURE GPRESSURE VOLUME PRESSAVG GPRESSAVG
ENERGY: 0 3.2662 11.9284 8.1932 0.0000 -10531.3081 1461.7255 0.0000 0.0000 1790.3819 -7255.8130 310.1949 -9046.1949 -7255.8130 310.1949 444.4531 532.7744 29975.4405 444.4531 532.7744
ENERGY: 300000 1.1082 9.1599 9.3783 0.0000 -10582.9004 1449.6724 0.0000 0.0000 1751.5358 -7362.0458 303.4646 -9113.5816 -7331.6540 300.0289 154.3908 251.1122 29659.8469 3.3636 90.9302
ENERGY: 600000 0.3052 6.8684 9.8006 0.0000 -10528.5710 1404.7843 0.0000 0.0000 1779.3996 -7327.4128 308.2922 -9106.8124 -7348.5150 300.8690 76.4995 116.5044 29459.0785 71.5991 137.3435
ENERGY: 900000 1.9434 11.7998 8.3710 0.0000 -10483.4990 1358.5255 0.0000 0.0000 1780.1069 -7322.7525 308.4147 -9102.8594 -7331.2818 302.4688 -700.5665 -521.6665 29950.5388 -5.3402 63.3297
ENERGY: 1200000 1.9285 9.4563 8.4164 0.0000 -10372.8706 1295.2777 0.0000 0.0000 1694.6647 -7363.1270 293.6113 -9057.7917 -7340.4377 301.1215 -1063.3778 -982.9272 30205.4209 -94.6742 -26.3899
ENERGY: 1500000 1.3949 9.7197 9.8294 0.0000 -10497.8464 1366.1436 0.0000 0.0000 1802.0858 -7308.6731 312.2227 -9110.7589 -7333.8504 303.0653 -323.6907 -310.1446 29794.5945 -23.9365 40.2833
TCL: Running FEP window  17: Lambda1 0.19999999999999968 Lambda2 0.1499999999999997 [dLambda -0.04999999999999999]
TCL: Setting parameter firsttimestep to 0
TCL: Setting parameter alchLambda to 0.19999999999999968
Info: NONBONDED TABLE R-SQUARED SPACING: 0.0625
Info: NONBONDED TABLE SIZE: 705 POINTS
TCL: Setting parameter alchLambda2 to 0.1499999999999997
Info: NONBONDED TABLE R-SQUARED SPACING: 0.0625
Info: NONBONDED TABLE SIZE: 705 POINTS
TCL: Running for 1500000 steps
ETITLE: TS BOND ANGLE DIHED IMPRP ELECT VDW BOUNDARY MISC KINETIC TOTAL TEMP POTENTIAL TOTALAVG TEMPAVG PRESSURE GPRESSURE VOLUME PRESSAVG GPRESSAVG
ENERGY: 0 1.3949 9.7197 9.8294 0.0000 -10497.8463 1365.6214 0.0000 0.0000 1801.2535 -7310.0274 312.0785 -9111.2809 -7310.0274 312.0785 -402.9032 -315.3598 29794.5945 -402.9032 -315.3598
ENERGY: 300000 1.7295 8.9815 8.4970 0.0000 -10478.3691 1378.5438 0.0000 0.0000 1778.7144 -7301.9029 308.1735 -9080.6173 -7340.6580 303.5924 -554.6140 -505.7049 30301.9877 -239.0312 -187.6196
ENERGY: 600000 0.7390 10.3082 8.1511 0.0000 -10474.7725 1370.8423 0.0000 0.0000 1765.9195 -7318.8124 305.9567 -9084.7319 -7331.9867 302.9348 -397.4492 -369.5520 29789.2874 -275.6067 -224.4649
ENERGY: 900000 3.9576 10.6180 8.1667 0.0000 -10525.2305 1381.3078 0.0000 0.0000 1792.5545 -7328.6259 310.5713 -9121.1804 -7337.8851 302.7820 -293.0854 -258.5523 29978.7595 -165.9019 -120.9614
ENERGY: 1200000 0.4578 10.8749 7.7691 0.0000 -10567.8870 1453.7628 0.0000 0.0000 1718.9221 -7376.1004 297.8141 -9095.0225 -7347.5703 300.9232 283.4085 331.1059 29704.9866 -74.3101 -23.7554
ENERGY: 1500000 2.6400 7.8864 9.2187 0.0000 -10554.0240 1479.4855 0.0000 0.0000 1751.1818 -7303.6116 303.4033 -9054.7933 -7344.6198 300.4799 838.6620 922.4652 29475.1073 -21.1942 33.9308
TCL: Running FEP window  18: Lambda1 0.1499999999999997 Lambda2 0.09999999999999969 [dLambda -0.05 ]
TCL: Setting parameter firsttimestep to 0
TCL: Setting parameter alchLambda to 0.1499999999999997
Info: NONBONDED TABLE R-SQUARED SPACING: 0.0625
Info: NONBONDED TABLE SIZE: 705 POINTS
TCL: Setting parameter alchLambda2 to 0.09999999999999969
Info: NONBONDED TABLE R-SQUARED SPACING: 0.0625
Info: NONBONDED TABLE SIZE: 705 POINTS
TCL: Running for 1500000 steps
ETITLE: TS BOND ANGLE DIHED IMPRP ELECT VDW BOUNDARY MISC KINETIC TOTAL TEMP POTENTIAL TOTALAVG TEMPAVG PRESSURE GPRESSURE VOLUME PRESSAVG GPRESSAVG
ENERGY: 0 2.6400 7.8864 9.2187 0.0000 -10554.0245 1479.0881 0.0000 0.0000 1750.3370 -7304.8543 303.2569 -9055.1912 -7304.8543 303.2569 829.6266 919.8453 29475.1073 829.6266 919.8453
ENERGY: 300000 1.1790 10.5362 8.0352 0.0000 -10482.4544 1376.5885 0.0000 0.0000 1721.8895 -7364.2261 298.3282 -9086.1155 -7306.0759 302.8876 -117.9227 -101.7564 29656.4655 -113.8976 -67.2271
ENERGY: 600000 1.0160 10.2919 9.5582 0.0000 -10484.1487 1435.6003 0.0000 0.0000 1774.9943 -7252.6880 307.5289 -9027.6823 -7320.9116 302.3621 114.3365 205.8104 30067.9959 -48.6704 -0.3952
ENERGY: 900000 1.6997 7.5591 9.2280 0.0000 -10499.5703 1393.3079 0.0000 0.0000 1736.9257 -7350.8499 300.9333 -9087.7756 -7339.0074 300.9395 -104.0187 18.5036 29458.9284 37.4037 89.9856
ENERGY: 1200000 0.3191 10.6186 9.2310 0.0000 -10536.1799 1425.0343 0.0000 0.0000 1710.8482 -7380.1287 296.4152 -9090.9769 -7346.0385 300.8258 -162.6103 -57.7443 29838.0361 43.1761 110.2358
ENERGY: 1500000 1.0799 9.6077 9.6377 0.0000 -10419.2428 1326.2740 0.0000 0.0000 1711.5347 -7361.1087 296.5341 -9072.6434 -7349.7935 300.6777 -779.6082 -706.5988 29985.7572 -51.9826 17.9672
TCL: Running FEP window  19: Lambda1 0.09999999999999969 Lambda2 0.049999999999999684 [dLambda -0.05 ]
TCL: Setting parameter firsttimestep to 0
TCL: Setting parameter alchLambda to 0.09999999999999969
Info: NONBONDED TABLE R-SQUARED SPACING: 0.0625
Info: NONBONDED TABLE SIZE: 705 POINTS
TCL: Setting parameter alchLambda2 to 0.049999999999999684
Info: NONBONDED TABLE R-SQUARED SPACING: 0.0625
Info: NONBONDED TABLE SIZE: 705 POINTS
TCL: Running for 1500000 steps
ETITLE: TS BOND ANGLE DIHED IMPRP ELECT VDW BOUNDARY MISC KINETIC TOTAL TEMP POTENTIAL TOTALAVG TEMPAVG PRESSURE GPRESSURE VOLUME PRESSAVG GPRESSAVG
ENERGY: 0 1.0799 9.6077 9.6377 0.0000 -10419.2421 1326.4856 0.0000 0.0000 1710.7352 -7361.6960 296.3956 -9072.4312 -7361.6960 296.3956 -787.6563 -708.9308 29985.7572 -787.6563 -708.9308
ENERGY: 300000 1.0594 9.2144 7.8949 0.0000 -10619.5206 1461.5869 0.0000 0.0000 1709.6449 -7430.1201 296.2067 -9139.7650 -7342.4455 298.5654 334.9416 336.0527 29516.2030 -323.9041 -264.5062
ENERGY: 600000 0.2045 8.6710 10.9755 0.0000 -10624.1138 1475.5444 0.0000 0.0000 1702.9729 -7425.7455 295.0508 -9128.7184 -7338.2709 300.9195 26.6755 93.9367 30217.7553 -318.9466 -253.3665
ENERGY: 900000 2.6340 6.7913 9.3571 0.0000 -10509.8875 1435.6294 0.0000 0.0000 1768.9816 -7286.4940 306.4872 -9055.4756 -7330.7491 300.9360 288.3374 326.2590 29429.7646 -40.8818 17.9147
ENERGY: 1200000 2.3249 7.2348 9.0923 0.0000 -10559.6960 1467.4364 0.0000 0.0000 1717.2533 -7356.3543 297.5249 -9073.6076 -7334.7987 301.2677 413.9302 489.7256 29527.5904 52.6056 113.2630
ENERGY: 1500000 0.8649 7.3930 9.1954 0.0000 -10355.8593 1329.9793 0.0000 0.0000 1755.2026 -7253.2242 304.0999 -9008.4267 -7338.0004 301.1489 -448.1665 -384.8392 29771.8029 80.1226 139.5387
TCL: Running FEP window  20: Lambda1 0.049999999999999684 Lambda2 0.0    [dLambda -0.049999999999999684]
TCL: Setting parameter firsttimestep to 0
TCL: Setting parameter alchLambda to 0.049999999999999684
Info: NONBONDED TABLE R-SQUARED SPACING: 0.0625
Info: NONBONDED TABLE SIZE: 705 POINTS
TCL: Setting parameter alchLambda2 to 0.0
Info: NONBONDED TABLE R-SQUARED SPACING: 0.0625
Info: NONBONDED TABLE SIZE: 705 POINTS
TCL: Running for 1500000 steps
ETITLE: TS BOND ANGLE DIHED IMPRP ELECT VDW BOUNDARY MISC KINETIC TOTAL TEMP POTENTIAL TOTALAVG TEMPAVG PRESSURE GPRESSURE VOLUME PRESSAVG GPRESSAVG
ENERGY: 0 0.8649 7.3930 9.1954 0.0000 -10355.8603 1330.0561 0.0000 0.0000 1754.2948 -7254.0562 303.9426 -9008.3510 -7254.0562 303.9426 -476.3906 -389.3909 29771.8029 -476.3906 -389.3909
ENERGY: 300000 0.8348 10.0414 8.4972 0.0000 -10624.0841 1477.3059 0.0000 0.0000 1720.8253 -7406.5794 298.1438 -9127.4047 -7319.6151 301.1793 390.4387 413.9327 29606.1235 -114.0153 -65.6381
ENERGY: 600000 2.3732 6.6677 10.4937 0.0000 -10368.7131 1249.3169 0.0000 0.0000 1665.3525 -7434.5090 288.5328 -9099.8615 -7350.2710 298.3796 -1270.6780 -1200.0963 29543.2722 -395.9278 -334.9197
ENERGY: 900000 1.6536 7.3772 9.1655 0.0000 -10670.1878 1497.7237 0.0000 0.0000 1718.5113 -7435.7566 297.7429 -9154.2678 -7363.1440 298.9690 500.0723 533.7210 29710.9716 -241.9177 -190.1566
ENERGY: 1200000 0.2251 9.2173 10.2475 0.0000 -10448.3838 1411.3926 0.0000 0.0000 1770.8424 -7246.4589 306.8096 -9017.3013 -7352.6654 300.0088 93.0820 206.2705 29616.0717 -286.7332 -230.4134
ENERGY: 1500000 1.0536 10.2223 8.7299 0.0000 -10473.2621 1381.0443 0.0000 0.0000 1759.4462 -7312.7659 304.8351 -9072.2120 -7358.8221 300.3284 -349.7693 -351.1988 30157.5555 -263.1992 -208.8817
TCL: Exiting due to exit command.
