Info: SIMULATION PARAMETERS:
Info: TIMESTEP               2
Info: NUMBER OF STEPS        0
Info: STEPS PER CYCLE        10
Info: PERIODIC CELL BASIS 1  41.123 0 0
Info: PERIODIC CELL BASIS 2  0 42.118 0
Info: PERIODIC CELL BASIS 3  0 0 46.255
Info: PERIODIC CELL CENTER   0 0 0
Info: WRAPPING WATERS AROUND PERIODIC BOUNDARIES ON OUTPUT.
Info: WRAPPING ALL CLUSTERS AROUND PERIODIC BOUNDARIES ON OUTPUT.
Info: FIRST LDB TIMESTEP     50
Info: LAST LDB TIMESTEP     -1
Info: HOM BACKGROUND SCALING 1
Info: PME BACKGROUND SCALING 1
Info: MIN ATOMS PER PATCH    40
Info: EMPTY PATCH LOAD       40 ATOMS
Info: INITIAL TEMPERATURE    300
Info: CENTER OF MASS MOVING INITIALLY? NO
Info: DIELECTRIC             1
Info: EXCLUDE                SCALED ONE-FOUR
Info: 1-4 ELECTROSTATICS SCALED BY 0.833333
Info: MODIFIED 1-4 VDW PARAMETERS WILL BE USED
Info: DCD FILENAME           mobley_3318135_min.dcd
Info: DCD FREQUENCY          5000
Info: DCD FIRST STEP         5000
Info: DCD FILE WILL CONTAIN UNIT CELL DATA
Info: XST FILENAME           mobley_3318135_min.xst
Info: XST FREQUENCY          5000
Info: NO VELOCITY DCD OUTPUT
Info: NO FORCE DCD OUTPUT
Info: OUTPUT FILENAME        mobley_3318135_min
Info: BINARY OUTPUT FILES WILL BE USED
Info: RESTART FILENAME       mobley_3318135_min.restart
Info: RESTART FREQUENCY      5000
Info: BINARY RESTART FILES WILL BE USED
Info: CUTOFF                 9
Info: PAIRLIST DISTANCE      11
Info: PAIRLIST SHRINK RATE   0.01
Info: PAIRLIST GROW RATE     0.01
Info: PAIRLIST TRIGGER       0.3
Info: PAIRLISTS PER CYCLE    2
Info: PAIRLISTS ENABLED
Info: MARGIN                 8
Info: HYDROGEN GROUP CUTOFF  2.5
Info: PATCH DIMENSION        21.5
Info: ENERGY OUTPUT STEPS    5000
Info: ENERGY EVALUATION STEPS    5000
Info: OUTPUT ENERGY PRECISION 4
Info: CROSSTERM ENERGY INCLUDED IN DIHEDRAL
Info: TIMING OUTPUT STEPS    50000
Info: PRESSURE OUTPUT STEPS  5000
Info: LANGEVIN DYNAMICS ACTIVE
Info: LANGEVIN TEMPERATURE   300
Info: LANGEVIN USING BBK INTEGRATOR
Info: LANGEVIN DAMPING COEFFICIENT IS 1 INVERSE PS
Info: LANGEVIN DYNAMICS APPLIED TO HYDROGENS
Info: LANGEVIN PISTON PRESSURE CONTROL ACTIVE
Info:        TARGET PRESSURE IS 1.01325 BAR
Info:     OSCILLATION PERIOD IS 50 FS
Info:             DECAY TIME IS 25 FS
Info:     PISTON TEMPERATURE IS 300 K
Info:       PRESSURE CONTROL IS GROUP-BASED
Info:    INITIAL STRAIN RATE IS 0 0 0
Info:       CELL FLUCTUATION IS ISOTROPIC
Info: PARTICLE MESH EWALD (PME) ACTIVE
Info: PME TOLERANCE               1e-06
Info: PME EWALD COEFFICIENT       0.348832
Info: PME INTERPOLATION ORDER     4
Info: PME GRID DIMENSIONS         44 44 48
Info: PME MAXIMUM GRID SPACING    1
Info: FULL ELECTROSTATIC EVALUATION FREQUENCY      2
Info: USING VERLET I (r-RESPA) MTS SCHEME.
Info: C1 SPLITTING OF LONG RANGE ELECTROSTATICS
Info: PLACING ATOMS IN PATCHES BY HYDROGEN GROUPS
Info: RIGID BONDS TO HYDROGEN : ALL
Info:         ERROR TOLERANCE : 1e-08
Info:          MAX ITERATIONS : 100
Info: RIGID WATER USING SETTLE ALGORITHM
Info: RANDOM NUMBER SEED     1741329949
Info: USE HYDROGEN BONDS?    NO
Info: Using AMBER format force field!
Info: AMBER PARM FILE        mobley_3318135.prmtop
Info: COORDINATE PDB         mobley_3318135.pdb
Info: Exclusions will be read from PARM file!
Info: SCNB (VDW SCALING)     2
Info: USING ARITHMETIC MEAN TO COMBINE L-J SIGMA PARAMETERS
Info: SUMMARY OF PARAMETERS:
Info: 6 BONDS
Info: 7 ANGLES
Info:   7 HARMONIC
Info:   0 COSINE-BASED
Info: 15 DIHEDRAL
Info: 0 IMPROPER
Info: 0 CROSSTERM
Info: 0 VDW
Info: 21 VDW_PAIRS
Info: 0 NBTHOLE_PAIRS
Info: STRUCTURE SUMMARY:
Info: 5866 ATOMS
Info: 5865 BONDS
Info: 51 ANGLES
Info: 79 DIHEDRALS
Info: 0 IMPROPERS
Info: 0 CROSSTERMS
Info: 5982 EXCLUSIONS
Info: 5856 RIGID BONDS
Info: 11742 DEGREES OF FREEDOM
Info: 1956 HYDROGEN GROUPS
Info: 4 ATOMS IN LARGEST HYDROGEN GROUP
Info: 1956 MIGRATION GROUPS
Info: 4 ATOMS IN LARGEST MIGRATION GROUP
Info: TOTAL MASS = 35201.4 amu
Info: TOTAL CHARGE = -0.000400022 e
Info: MASS DENSITY = 0.729638 g/cm^3
Info: ATOM DENSITY = 0.0732202 atoms/A^3
Info: ADDED 0 IMPLICIT EXCLUSIONS
Info: NONBONDED TABLE R-SQUARED SPACING: 0.0625
Info: NONBONDED TABLE SIZE: 705 POINTS
Info: REMOVING COM VELOCITY 0.0734225 0.00237689 0.0289789
TCL: Minimizing for 2000 steps
ETITLE: TS BOND ANGLE DIHED IMPRP ELECT VDW BOUNDARY MISC KINETIC TOTAL TEMP POTENTIAL TOTAL3 TEMPAVG PRESSURE GPRESSURE VOLUME PRESSAVG GPRESSAVG
ENERGY: 0 0.2288 0.5789 33.6799 0.0000 -18251.5247 2011.4367 0.0000 0.0000 0.0000 -16205.6004 0.0000 -16205.6004 -16205.6004 0.0000 11116.0039 -15824.2499 80114.5164 11116.0039 -15824.2499
ENERGY: 400 48.4993 20.9050 29.8012 0.0000 -24593.6197 3582.7905 0.0000 0.0000 0.0000 -20911.6237 0.0000 -20911.6237 -20911.6237 0.0000 15971.1929 11521.9961 80114.5164 15971.1929 11521.9961
ENERGY: 800 13.7355 2.4007 31.8407 0.0000 -25635.4118 4041.8181 0.0000 0.0000 0.0000 -21545.6167 0.0000 -21545.6167 -21545.6167 0.0000 17848.2679 13290.7948 80114.5164 17848.2679 13290.7948
ENERGY: 1200 0.8515 1.2364 30.8150 0.0000 -26222.0735 4296.1151 0.0000 0.0000 0.0000 -21893.0555 0.0000 -21893.0555 -21893.0555 0.0000 18859.0681 14029.6468 80114.5164 18859.0681 14029.6468
ENERGY: 1600 5.7256 2.1476 30.6405 0.0000 -26512.4221 4446.3006 0.0000 0.0000 0.0000 -22027.6079 0.0000 -22027.6079 -22027.6079 0.0000 19466.0766 14570.9073 80114.5164 19466.0766 14570.9073
ENERGY: 2000 0.3284 0.9840 30.2945 0.0000 -26647.0741 4489.4163 0.0000 0.0000 0.0000 -22126.0509 0.0000 -22126.0509 -22126.0509 0.0000 19682.5336 14841.1146 80114.5164 19682.5336 14841.1146
TCL: Exiting due to exit command.
Info: NAMD 3.0.1 for Linux-x86_64-multicore
Info: Please visit http://www.ks.uiuc.edu/Research/namd/
Info: for updates, documentation, and support information.
Info: Please cite Phillips et al., J. Chem. Phys. 153:044130 (2020) doi:10.1063/5.0014475
Info: in all publications reporting results obtained with NAMD.
Info: Based on Charm++/Converse 80000 for multicore-linux-x86_64-gcc
Info: Built Mon Oct 14 11:11:06 CDT 2024 by dhardy on athine.ks.uiuc.edu
Info: 1 NAMD  3.0.1  Linux-x86_64-multicore  16    k065  z5358697
Info: Running on 16 processors, 1 nodes, 1 physical nodes.
Info: CPU topology information available.
Info: Charm++/Converse parallel runtime startup completed at 0.00804589 s
Info: 1043.46 MB of memory in use based on /proc/self/stat
Info: Configuration file is mobley_3318135_equil.namd
Info: Working in the current directory /srv/scratch/z5358697/prod_prep_4/3318135
TCL: Running 25000 steps at 30 kelvin.
TCL: Suspending until startup complete.
Info: SIMULATION PARAMETERS:
Info: TIMESTEP               2
Info: NUMBER OF STEPS        0
Info: STEPS PER CYCLE        10
Info: PERIODIC CELL BASIS 1  41.123 0 0
Info: PERIODIC CELL BASIS 2  0 42.118 0
Info: PERIODIC CELL BASIS 3  0 0 46.255
Info: PERIODIC CELL CENTER   0 0 0
Info: WRAPPING WATERS AROUND PERIODIC BOUNDARIES ON OUTPUT.
Info: WRAPPING ALL CLUSTERS AROUND PERIODIC BOUNDARIES ON OUTPUT.
Info: FIRST LDB TIMESTEP     50
Info: LAST LDB TIMESTEP     -1
Info: HOM BACKGROUND SCALING 1
Info: PME BACKGROUND SCALING 1
Info: MIN ATOMS PER PATCH    40
Info: EMPTY PATCH LOAD       40 ATOMS
Info: INITIAL TEMPERATURE    300
Info: CENTER OF MASS MOVING INITIALLY? NO
Info: DIELECTRIC             1
Info: EXCLUDE                SCALED ONE-FOUR
Info: 1-4 ELECTROSTATICS SCALED BY 0.833333
Info: MODIFIED 1-4 VDW PARAMETERS WILL BE USED
Info: DCD FILENAME           mobley_3318135_equil.dcd
Info: DCD FREQUENCY          5000
Info: DCD FIRST STEP         5000
Info: DCD FILE WILL CONTAIN UNIT CELL DATA
Info: XST FILENAME           mobley_3318135_equil.xst
Info: XST FREQUENCY          5000
Info: NO VELOCITY DCD OUTPUT
Info: NO FORCE DCD OUTPUT
Info: OUTPUT FILENAME        mobley_3318135_equil
Info: BINARY OUTPUT FILES WILL BE USED
Info: RESTART FILENAME       mobley_3318135_equil.restart
Info: RESTART FREQUENCY      5000
Info: BINARY RESTART FILES WILL BE USED
Info: CUTOFF                 9
Info: PAIRLIST DISTANCE      11
Info: PAIRLIST SHRINK RATE   0.01
Info: PAIRLIST GROW RATE     0.01
Info: PAIRLIST TRIGGER       0.3
Info: PAIRLISTS PER CYCLE    2
Info: PAIRLISTS ENABLED
Info: MARGIN                 8
Info: HYDROGEN GROUP CUTOFF  2.5
Info: PATCH DIMENSION        21.5
Info: ENERGY OUTPUT STEPS    5000
Info: ENERGY EVALUATION STEPS    5000
Info: OUTPUT ENERGY PRECISION 4
Info: CROSSTERM ENERGY INCLUDED IN DIHEDRAL
Info: TIMING OUTPUT STEPS    50000
Info: PRESSURE OUTPUT STEPS  5000
Info: LANGEVIN DYNAMICS ACTIVE
Info: LANGEVIN TEMPERATURE   30
Info: LANGEVIN USING BBK INTEGRATOR
Info: LANGEVIN DAMPING COEFFICIENT IS 1 INVERSE PS
Info: LANGEVIN DYNAMICS APPLIED TO HYDROGENS
Info: LANGEVIN PISTON PRESSURE CONTROL ACTIVE
Info:        TARGET PRESSURE IS 1.01325 BAR
Info:     OSCILLATION PERIOD IS 50 FS
Info:             DECAY TIME IS 25 FS
Info:     PISTON TEMPERATURE IS 300 K
Info:       PRESSURE CONTROL IS GROUP-BASED
Info:    INITIAL STRAIN RATE IS 0 0 0
Info:       CELL FLUCTUATION IS ISOTROPIC
Info: PARTICLE MESH EWALD (PME) ACTIVE
Info: PME TOLERANCE               1e-06
Info: PME EWALD COEFFICIENT       0.348832
Info: PME INTERPOLATION ORDER     4
Info: PME GRID DIMENSIONS         44 44 48
Info: PME MAXIMUM GRID SPACING    1
Info: FULL ELECTROSTATIC EVALUATION FREQUENCY      2
Info: USING VERLET I (r-RESPA) MTS SCHEME.
Info: C1 SPLITTING OF LONG RANGE ELECTROSTATICS
Info: PLACING ATOMS IN PATCHES BY HYDROGEN GROUPS
Info: RIGID BONDS TO HYDROGEN : ALL
Info:         ERROR TOLERANCE : 1e-08
Info:          MAX ITERATIONS : 100
Info: RIGID WATER USING SETTLE ALGORITHM
Info: RANDOM NUMBER SEED     1741329974
Info: USE HYDROGEN BONDS?    NO
Info: Using AMBER format force field!
Info: AMBER PARM FILE        mobley_3318135.prmtop
Info: COORDINATE PDB         mobley_3318135.pdb
Info: Exclusions will be read from PARM file!
Info: SCNB (VDW SCALING)     2
Info: USING ARITHMETIC MEAN TO COMBINE L-J SIGMA PARAMETERS
Info: BINARY COORDINATES     mobley_3318135_min.coor
Info: SUMMARY OF PARAMETERS:
Info: 6 BONDS
Info: 7 ANGLES
Info:   7 HARMONIC
Info:   0 COSINE-BASED
Info: 15 DIHEDRAL
Info: 0 IMPROPER
Info: 0 CROSSTERM
Info: 0 VDW
Info: 21 VDW_PAIRS
Info: 0 NBTHOLE_PAIRS
Info: STRUCTURE SUMMARY:
Info: 5866 ATOMS
Info: 5865 BONDS
Info: 51 ANGLES
Info: 79 DIHEDRALS
Info: 0 IMPROPERS
Info: 0 CROSSTERMS
Info: 5982 EXCLUSIONS
Info: 5856 RIGID BONDS
Info: 11742 DEGREES OF FREEDOM
Info: 1956 HYDROGEN GROUPS
Info: 4 ATOMS IN LARGEST HYDROGEN GROUP
Info: 1956 MIGRATION GROUPS
Info: 4 ATOMS IN LARGEST MIGRATION GROUP
Info: TOTAL MASS = 35201.4 amu
Info: TOTAL CHARGE = -0.000400022 e
Info: MASS DENSITY = 0.729638 g/cm^3
Info: ATOM DENSITY = 0.0732202 atoms/A^3
Info: ADDED 0 IMPLICIT EXCLUSIONS
Info: NONBONDED TABLE R-SQUARED SPACING: 0.0625
Info: NONBONDED TABLE SIZE: 705 POINTS
Info: REMOVING COM VELOCITY -0.0448021 -0.0186458 -0.0467193
TCL: Running for 25000 steps
ETITLE: TS BOND ANGLE DIHED IMPRP ELECT VDW BOUNDARY MISC KINETIC TOTAL TEMP POTENTIAL TOTAL3 TEMPAVG PRESSURE GPRESSURE VOLUME PRESSAVG GPRESSAVG
ENERGY: 0 0.3284 0.9840 30.2945 0.0000 -26647.0741 4489.4163 0.0000 0.0000 3451.5319 -18674.5190 295.8423 -22126.0509 -18673.8187 295.8423 -200.3431 -151.6881 80114.5164 -200.3431 -151.6881
ENERGY: 5000 0.4248 2.0060 30.2456 0.0000 -28181.4885 4942.8981 0.0000 0.0000 351.5623 -22854.3517 30.1336 -23205.9140 -22853.1304 47.6741 313.1916 373.0517 56707.9002 1.7476 1.8761
ENERGY: 10000 1.6336 1.5399 29.6905 0.0000 -27800.1830 4539.6277 0.0000 0.0000 352.5153 -22875.1759 30.2153 -23227.6912 -22874.2713 30.3818 -1495.1636 -1436.7068 57266.6453 6.5617 6.4938
ENERGY: 15000 0.5133 1.8357 30.1011 0.0000 -28113.3106 4796.1331 0.0000 0.0000 357.2092 -22927.5182 30.6176 -23284.7274 -22926.6945 30.2413 -447.4394 -402.4008 56926.0311 1.0410 1.1518
ENERGY: 20000 0.3225 1.8199 30.5458 0.0000 -28162.3733 4802.1642 0.0000 0.0000 358.2540 -22969.2668 30.7071 -23327.5208 -22968.1983 30.1294 -538.0942 -485.6436 56979.0054 6.0508 6.1398
ENERGY: 25000 0.7725 2.2186 30.4148 0.0000 -28172.2648 4805.8256 0.0000 0.0000 349.8726 -22983.1607 29.9887 -23333.0332 -22982.2215 29.9950 -520.2005 -465.3669 56893.9616 0.2728 0.1499
TCL: Running 25000 steps at 60 kelvin.
TCL: Setting parameter langevinTemp to 60
TCL: Running for 25000 steps
ETITLE: TS BOND ANGLE DIHED IMPRP ELECT VDW BOUNDARY MISC KINETIC TOTAL TEMP POTENTIAL TOTAL3 TEMPAVG PRESSURE GPRESSURE VOLUME PRESSAVG GPRESSAVG
ENERGY: 25000 0.7725 2.2186 30.4148 0.0000 -28172.2648 4805.8256 0.0000 0.0000 349.6920 -22983.3412 29.9733 -23333.0332 -22982.4950 29.9733 -519.4075 -465.2249 56893.9616 -519.4075 -465.2249
ENERGY: 30000 1.0221 3.2001 29.8168 0.0000 -27918.2917 4896.5356 0.0000 0.0000 706.7644 -22280.9528 60.5791 -22987.7172 -22279.1665 56.7798 590.2785 662.7497 56594.1751 5.5851 5.4266
ENERGY: 35000 0.0923 3.1075 29.8583 0.0000 -27675.5670 4590.3816 0.0000 0.0000 725.6092 -22326.5182 62.1944 -23052.1274 -22323.9379 60.1134 -755.8697 -687.7921 56773.2098 2.0892 2.2904
ENERGY: 40000 0.9158 3.2751 31.0823 0.0000 -27813.7723 4702.4939 0.0000 0.0000 719.8755 -22356.1297 61.7029 -23076.0052 -22354.2607 60.0536 -334.7348 -303.1673 56545.0529 10.9203 10.8150
ENERGY: 45000 0.8884 3.9113 30.1640 0.0000 -27761.5461 4629.5245 0.0000 0.0000 703.8212 -22393.2367 60.3268 -23097.0579 -22391.5764 60.5232 -667.2577 -611.6301 56608.4104 0.3787 -0.0210
ENERGY: 50000 0.3162 4.4407 29.7668 0.0000 -27856.8336 4706.4568 0.0000 0.0000 692.1328 -22423.7203 59.3250 -23115.8531 -22421.0328 60.0454 -358.9423 -306.1139 56590.1224 4.6507 5.2350
TCL: Running 25000 steps at 90 kelvin.
TCL: Setting parameter langevinTemp to 90
TCL: Running for 25000 steps
ETITLE: TS BOND ANGLE DIHED IMPRP ELECT VDW BOUNDARY MISC KINETIC TOTAL TEMP POTENTIAL TOTAL3 TEMPAVG PRESSURE GPRESSURE VOLUME PRESSAVG GPRESSAVG
ENERGY: 50000 0.3162 4.4407 29.7668 0.0000 -27856.8336 4706.4568 0.0000 0.0000 691.7797 -22424.0734 59.2947 -23115.8531 -22422.2794 59.2947 -352.2354 -305.5075 56590.1224 -352.2354 -305.5075
ENERGY: 55000 1.3785 6.9280 29.4408 0.0000 -27317.9645 4533.4858 0.0000 0.0000 1034.9806 -21711.7507 88.7116 -22746.7313 -21709.6045 87.3316 -359.0343 -349.0179 56826.9233 2.2876 2.5346
ENERGY: 60000 0.4057 5.6308 30.0583 0.0000 -27541.8755 4700.3308 0.0000 0.0000 1061.8681 -21743.5818 91.0162 -22805.4499 -21741.0506 89.8963 200.0743 261.2176 56476.5783 3.3756 3.7988
ENERGY: 65000 0.3184 4.1912 30.7705 0.0000 -27330.1625 4458.7994 0.0000 0.0000 1043.9081 -21792.1750 89.4768 -22836.0831 -21790.2916 90.4251 -855.7349 -794.7408 56588.5753 4.2481 4.8489
ENERGY: 70000 0.8513 4.7170 30.0941 0.0000 -27506.8994 4639.2048 0.0000 0.0000 1038.9076 -21793.1247 89.0482 -22832.0322 -21790.9167 90.1524 -75.1534 -1.9408 56323.7815 5.8990 5.9267
ENERGY: 75000 0.9141 6.6541 31.9384 0.0000 -27644.3018 4716.7354 0.0000 0.0000 1051.9278 -21836.1319 90.1642 -22888.0597 -21832.6010 89.8404 284.3913 339.0929 55980.5233 -1.1355 -1.0403
TCL: Running 25000 steps at 120 kelvin.
TCL: Setting parameter langevinTemp to 120
TCL: Running for 25000 steps
ETITLE: TS BOND ANGLE DIHED IMPRP ELECT VDW BOUNDARY MISC KINETIC TOTAL TEMP POTENTIAL TOTAL3 TEMPAVG PRESSURE GPRESSURE VOLUME PRESSAVG GPRESSAVG
ENERGY: 75000 0.9141 6.6541 31.9384 0.0000 -27644.3018 4716.7354 0.0000 0.0000 1051.4070 -21836.6527 90.1196 -22888.0597 -21834.6047 90.1196 288.1226 339.3211 55980.5233 288.1226 339.3211
ENERGY: 80000 1.9375 6.8634 30.6253 0.0000 -26798.0326 4265.2738 0.0000 0.0000 1410.4970 -21082.8356 120.8984 -22493.3325 -21078.7895 115.9698 -1007.3646 -949.6202 57020.0960 2.0647 1.7837
ENERGY: 85000 1.0916 7.3995 31.0622 0.0000 -27184.1543 4631.3677 0.0000 0.0000 1386.8109 -21126.4226 118.8682 -22513.2335 -21123.6598 120.5359 611.2013 695.5053 56211.9427 0.5559 0.4986
ENERGY: 90000 0.9397 5.6506 30.8328 0.0000 -27000.7946 4417.8054 0.0000 0.0000 1380.2091 -21165.3570 118.3023 -22545.5662 -21162.4003 119.9499 -413.0185 -371.9453 56507.3039 2.5543 2.6724
ENERGY: 95000 0.2307 6.0575 30.5595 0.0000 -27058.7870 4447.5893 0.0000 0.0000 1379.3156 -21195.0344 118.2257 -22574.3501 -21191.9727 120.1598 -357.4439 -304.3210 56592.3293 3.8175 3.6405
ENERGY: 100000 0.9031 6.7631 31.7355 0.0000 -27018.8398 4390.3197 0.0000 0.0000 1409.0073 -21180.1110 120.7707 -22589.1183 -21175.5907 119.7779 -616.9663 -563.6212 56632.9692 -0.2238 -0.0717
TCL: Running 25000 steps at 150 kelvin.
TCL: Setting parameter langevinTemp to 150
TCL: Running for 25000 steps
ETITLE: TS BOND ANGLE DIHED IMPRP ELECT VDW BOUNDARY MISC KINETIC TOTAL TEMP POTENTIAL TOTAL3 TEMPAVG PRESSURE GPRESSURE VOLUME PRESSAVG GPRESSAVG
ENERGY: 100000 0.9031 6.7631 31.7355 0.0000 -27018.8398 4390.3197 0.0000 0.0000 1408.2972 -21180.8211 120.7098 -22589.1183 -21177.8415 120.7098 -633.2696 -563.5871 56632.9692 -633.2696 -563.5871
ENERGY: 105000 2.7238 5.3375 31.9707 0.0000 -26447.9804 4227.3617 0.0000 0.0000 1729.2872 -20451.2994 148.2229 -22180.5866 -20447.7892 146.0440 -515.4328 -450.4367 56886.2818 2.0440 2.1330
ENERGY: 110000 2.0338 8.3819 31.4710 0.0000 -26722.4336 4482.1549 0.0000 0.0000 1769.5571 -20428.8349 151.6746 -22198.3920 -20423.5759 149.8426 526.1121 572.9678 56430.9431 3.4501 3.2514
ENERGY: 115000 3.9850 7.7591 31.5455 0.0000 -26647.2092 4415.0606 0.0000 0.0000 1754.9635 -20433.8956 150.4237 -22188.8591 -20428.6806 150.5209 108.4529 175.5631 56912.6139 1.2960 1.6564
ENERGY: 120000 1.2091 6.8379 31.1462 0.0000 -26718.1046 4423.5597 0.0000 0.0000 1779.9604 -20475.3912 152.5663 -22255.3517 -20470.8725 150.1180 192.6311 258.2124 56625.5056 2.3386 2.2630
ENERGY: 125000 1.4934 6.6199 30.2537 0.0000 -26643.8650 4333.1359 0.0000 0.0000 1737.9460 -20534.4161 148.9651 -22272.3621 -20531.0285 149.9629 -422.2605 -326.8471 57165.7930 4.2119 4.1474
TCL: Running 50000 steps at 180 kelvin.
TCL: Setting parameter langevinTemp to 180
TCL: Running for 50000 steps
ETITLE: TS BOND ANGLE DIHED IMPRP ELECT VDW BOUNDARY MISC KINETIC TOTAL TEMP POTENTIAL TOTAL3 TEMPAVG PRESSURE GPRESSURE VOLUME PRESSAVG GPRESSAVG
ENERGY: 125000 1.4934 6.6199 30.2537 0.0000 -26643.8650 4333.1359 0.0000 0.0000 1737.0769 -20535.2851 148.8906 -22272.3621 -20531.5292 148.8906 -384.5208 -327.2631 57165.7930 -384.5208 -327.2631
ENERGY: 135000 1.2065 6.5198 31.0472 0.0000 -25867.9590 4168.0945 0.0000 0.0000 2163.3765 -19497.7145 185.4302 -21661.0909 -19493.3419 181.0582 94.1187 146.0388 57373.6474 1.2413 1.0079
ENERGY: 145000 1.9928 7.5563 30.9475 0.0000 -25836.9108 4014.8865 0.0000 0.0000 2085.2839 -19696.2438 178.7366 -21781.5278 -19690.7914 180.2544 -893.0038 -834.9762 57740.3984 1.4159 1.1645
ENERGY: 155000 2.0149 5.7198 31.1835 0.0000 -26183.8880 4356.8926 0.0000 0.0000 2139.2855 -19648.7917 183.3653 -21788.0772 -19645.2993 181.3355 719.3242 771.5720 57018.3237 0.2471 0.3010
ENERGY: 165000 3.5977 7.5429 30.9218 0.0000 -25969.6615 4128.4075 0.0000 0.0000 2113.8868 -19685.3048 181.1883 -21799.1917 -19678.6363 179.4731 -196.0423 -119.3864 56842.5048 1.0960 0.7360
ENERGY: 175000 1.2134 6.5090 30.5141 0.0000 -25922.4042 4122.7417 0.0000 0.0000 2094.2142 -19667.2118 179.5020 -21761.4259 -19663.9123 180.8551 -227.7954 -156.3877 57113.0775 0.8883 0.9410
TCL: Running 50000 steps at 210 kelvin.
TCL: Setting parameter langevinTemp to 210
TCL: Running for 50000 steps
ETITLE: TS BOND ANGLE DIHED IMPRP ELECT VDW BOUNDARY MISC KINETIC TOTAL TEMP POTENTIAL TOTAL3 TEMPAVG PRESSURE GPRESSURE VOLUME PRESSAVG GPRESSAVG
ENERGY: 175000 1.2134 6.5090 30.5141 0.0000 -25922.4042 4122.7417 0.0000 0.0000 2093.1321 -19668.2939 179.4093 -21761.4259 -19664.2005 179.4093 -214.7246 -157.7907 57113.0775 -214.7246 -157.7907
ENERGY: 185000 2.1939 8.6983 30.9396 0.0000 -24558.9989 3597.6840 0.0000 0.0000 2408.6013 -18510.8818 206.4492 -20919.4831 -18504.5307 209.8113 -933.4043 -840.6190 57563.6344 -0.3731 0.0122
ENERGY: 195000 1.8245 6.2443 31.0561 0.0000 -24716.8011 3822.6130 0.0000 0.0000 2424.4023 -18430.6608 207.8036 -20855.0631 -18425.4856 210.5449 295.1834 346.8122 56920.9245 -0.3235 -0.8889
ENERGY: 205000 1.6965 7.7262 30.7436 0.0000 -24752.9241 3813.8045 0.0000 0.0000 2445.1079 -18453.8454 209.5783 -20898.9533 -18448.1053 211.0987 101.9002 206.2644 57116.1349 2.1671 1.8688
ENERGY: 215000 0.2807 7.6342 30.6830 0.0000 -24397.5021 3541.8142 0.0000 0.0000 2489.3466 -18327.7434 213.3702 -20817.0900 -18319.2077 210.3711 -755.8257 -675.1893 57132.1974 3.9760 4.1222
ENERGY: 225000 3.8751 12.3125 29.0129 0.0000 -24637.0250 3690.8816 0.0000 0.0000 2456.5372 -18444.4056 210.5580 -20900.9428 -18439.1620 210.3455 -554.8313 -453.6198 57535.9037 6.0882 6.0437
TCL: Running 50000 steps at 240 kelvin.
TCL: Setting parameter langevinTemp to 240
TCL: Running for 50000 steps
ETITLE: TS BOND ANGLE DIHED IMPRP ELECT VDW BOUNDARY MISC KINETIC TOTAL TEMP POTENTIAL TOTAL3 TEMPAVG PRESSURE GPRESSURE VOLUME PRESSAVG GPRESSAVG
ENERGY: 225000 3.8751 12.3125 29.0129 0.0000 -24637.0250 3690.8816 0.0000 0.0000 2455.3545 -18445.5883 210.4566 -20900.9428 -18441.0410 210.4566 -544.0854 -454.5583 57535.9037 -544.0854 -454.5583
ENERGY: 235000 1.7904 16.8603 27.5248 0.0000 -23422.2412 3408.3469 0.0000 0.0000 2850.2414 -17117.4775 244.3036 -19967.7188 -17113.6772 239.8762 -55.0136 58.8090 57984.1230 5.3889 4.8221
ENERGY: 245000 1.9744 10.1738 28.8966 0.0000 -23485.2086 3468.0089 0.0000 0.0000 2753.7202 -17222.4348 236.0305 -19976.1550 -17217.6394 239.7949 184.0946 227.3875 57585.9646 1.3902 1.7659
ENERGY: 255000 1.1929 11.5741 29.4102 0.0000 -23457.0303 3505.1913 0.0000 0.0000 2829.5708 -17080.0909 242.5319 -19909.6618 -17073.8959 240.2118 483.7846 586.5817 57937.4011 4.2387 4.8919
ENERGY: 265000 2.6657 10.5634 30.9406 0.0000 -23206.7791 3322.2033 0.0000 0.0000 2783.2444 -17057.1616 238.5611 -19840.4060 -17049.5790 242.0345 -285.1584 -192.3429 58261.2810 3.7502 3.4729
ENERGY: 275000 2.6681 10.2603 30.5337 0.0000 -23545.1686 3499.7571 0.0000 0.0000 2865.8342 -17136.1152 245.6402 -20001.9494 -17130.1990 239.4758 433.4153 508.4251 57380.2016 3.7424 4.0229
TCL: Running 50000 steps at 270 kelvin.
TCL: Setting parameter langevinTemp to 270
TCL: Running for 50000 steps
ETITLE: TS BOND ANGLE DIHED IMPRP ELECT VDW BOUNDARY MISC KINETIC TOTAL TEMP POTENTIAL TOTAL3 TEMPAVG PRESSURE GPRESSURE VOLUME PRESSAVG GPRESSAVG
ENERGY: 275000 2.6681 10.2603 30.5337 0.0000 -23545.1686 3499.7571 0.0000 0.0000 2864.4641 -17137.4853 245.5227 -20001.9494 -17133.3267 245.5227 425.7760 507.7199 57380.2016 425.7760 507.7199
ENERGY: 285000 2.8989 9.5446 29.5628 0.0000 -22410.6246 3223.1671 0.0000 0.0000 3152.2730 -15993.1782 270.1918 -19145.4512 -15988.0798 271.4410 640.6684 779.9271 58129.8106 0.0745 -0.0769
ENERGY: 295000 1.8525 11.0979 30.7592 0.0000 -22322.4738 3130.1446 0.0000 0.0000 3153.6566 -15994.9629 270.3104 -19148.6195 -15988.5353 268.6470 191.6074 283.0128 58469.4667 6.4296 6.7901
ENERGY: 305000 1.6283 10.3879 33.7099 0.0000 -22360.4358 3121.0118 0.0000 0.0000 3111.4221 -16082.2758 266.6903 -19193.6979 -16077.0244 269.6146 -96.9747 20.5540 58793.3950 0.3107 0.4749
ENERGY: 315000 4.3135 10.8018 30.1114 0.0000 -22280.8265 3059.6583 0.0000 0.0000 3137.7640 -16038.1775 268.9482 -19175.9414 -16030.4444 270.6811 -292.9864 -210.6553 58815.5769 4.1233 4.6540
ENERGY: 325000 1.9866 11.0234 31.4916 0.0000 -22295.2254 3068.1891 0.0000 0.0000 3198.1659 -15984.3688 274.1254 -19182.5347 -15977.6593 271.6952 -324.7334 -247.9151 59041.2695 -0.8628 -0.9250
TCL: Running 1000000 steps at 300 kelvin.
TCL: Setting parameter langevinTemp to 300
TCL: Running for 1000000 steps
ETITLE: TS BOND ANGLE DIHED IMPRP ELECT VDW BOUNDARY MISC KINETIC TOTAL TEMP POTENTIAL TOTAL3 TEMPAVG PRESSURE GPRESSURE VOLUME PRESSAVG GPRESSAVG
ENERGY: 325000 1.9866 11.0234 31.4916 0.0000 -22295.2254 3068.1891 0.0000 0.0000 3196.5742 -15985.9605 273.9890 -19182.5347 -15981.0778 273.9890 -329.8690 -248.3294 59041.2695 -329.8690 -248.3294
ENERGY: 525000 2.3698 10.1380 30.8426 0.0000 -21268.5650 2924.5263 0.0000 0.0000 3475.9472 -14824.7410 297.9350 -18300.6882 -14816.6199 301.0434 187.9796 255.5953 61154.9659 9.2948 8.9069
ENERGY: 725000 1.3109 13.3016 29.9365 0.0000 -21282.5922 2809.5661 0.0000 0.0000 3384.1169 -15044.3602 290.0639 -18428.4771 -15037.7247 298.8487 -367.7848 -257.0476 60400.1588 3.0739 2.4336
ENERGY: 925000 3.2130 14.2821 31.9839 0.0000 -21221.6661 2815.3980 0.0000 0.0000 3467.4934 -14889.2958 297.2104 -18356.7892 -14880.5189 301.9355 -374.2279 -249.6493 60950.3030 5.1131 4.9097
ENERGY: 1125000 0.9967 17.3959 29.0625 0.0000 -21291.3671 2985.8960 0.0000 0.0000 3512.7032 -14745.3128 301.0854 -18258.0160 -14743.4883 300.1409 856.9490 956.1824 59763.7325 -1.9214 -2.1544
ENERGY: 1325000 2.0737 14.7472 30.9198 0.0000 -21250.9963 2863.8453 0.0000 0.0000 3531.7185 -14807.6918 302.7153 -18339.4102 -14799.5602 300.6367 123.1453 206.8601 60377.0061 1.0183 1.0415
TCL: Exiting due to exit command.
