Info: SIMULATION PARAMETERS:
Info: TIMESTEP               2
Info: NUMBER OF STEPS        0
Info: STEPS PER CYCLE        10
Info: PERIODIC CELL BASIS 1  30.961 0 0
Info: PERIODIC CELL BASIS 2  0 31.6628 0
Info: PERIODIC CELL BASIS 3  0 0 31.6133
Info: PERIODIC CELL CENTER   0 0 0
Info: WRAPPING WATERS AROUND PERIODIC BOUNDARIES ON OUTPUT.
Info: WRAPPING ALL CLUSTERS AROUND PERIODIC BOUNDARIES ON OUTPUT.
Info: FIRST LDB TIMESTEP     50
Info: LAST LDB TIMESTEP     -1
Info: HOM BACKGROUND SCALING 1
Info: PME BACKGROUND SCALING 1
Info: MIN ATOMS PER PATCH    40
Info: EMPTY PATCH LOAD       40 ATOMS
Info: VELOCITY FILE          mobley_2727678_equil.vel
Info: CENTER OF MASS MOVING INITIALLY? NO
Info: DIELECTRIC             1
Info: EXCLUDE                SCALED ONE-FOUR
Info: 1-4 ELECTROSTATICS SCALED BY 0.833333
Info: MODIFIED 1-4 VDW PARAMETERS WILL BE USED
Info: DCD FILENAME           mobley_2727678_prod.dcd
Info: DCD FREQUENCY          100000
Info: DCD FIRST STEP         100000
Info: DCD FILE WILL CONTAIN UNIT CELL DATA
Info: XST FILENAME           mobley_2727678_prod.xst
Info: XST FREQUENCY          100000
Info: NO VELOCITY DCD OUTPUT
Info: NO FORCE DCD OUTPUT
Info: OUTPUT FILENAME        mobley_2727678_prod
Info: BINARY OUTPUT FILES WILL BE USED
Info: RESTART FILENAME       mobley_2727678_prod.restart
Info: RESTART FREQUENCY      100000
Info: BINARY RESTART FILES WILL BE USED
Info: CUTOFF                 9
Info: PAIRLIST DISTANCE      11
Info: PAIRLIST SHRINK RATE   0.01
Info: PAIRLIST GROW RATE     0.01
Info: PAIRLIST TRIGGER       0.3
Info: PAIRLISTS PER CYCLE    2
Info: PAIRLISTS ENABLED
Info: MARGIN                 2
Info: HYDROGEN GROUP CUTOFF  2.5
Info: PATCH DIMENSION        15.5
Info: ENERGY OUTPUT STEPS    100000
Info: ENERGY EVALUATION STEPS    100000
Info: OUTPUT ENERGY PRECISION 4
Info: CROSSTERM ENERGY INCLUDED IN DIHEDRAL
Info: TIMING OUTPUT STEPS    1000000
Info: PRESSURE OUTPUT STEPS  100000
Info: FIXED ATOMS ACTIVE
Info: ALCHEMICAL FEP ON
Info: FEP CURRENT LAMBDA VALUE     1
Info: FEP COMPARISON LAMBDA VALUE  0.95
Info: FEP INTRA-ALCHEMICAL NON-BONDED INTERACTIONS WILL BE RETAINED
Info: FEP INTRA-ALCHEMICAL BONDED INTERACTIONS WILL BE RETAINED
Info: FEP VDW SHIFTING COEFFICIENT 5
Info: FEP ELEC. ACTIVE FOR ANNIHILATED PARTICLES BETWEEN LAMBDA = 0 AND LAMBDA = 0.5
Info: FEP ELEC. ACTIVE FOR EXNIHILATED PARTICLES BETWEEN LAMBDA = 0.5 AND LAMBDA = 1
Info: FEP VDW ACTIVE FOR ANNIHILATED PARTICLES BETWEEN LAMBDA = 0 AND LAMBDA = 1
Info: FEP VDW ACTIVE FOR EXNIHILATED PARTICLES BETWEEN LAMBDA = 0 AND LAMBDA = 1
Info: FEP BOND ACTIVE FOR ANNIHILATED PARTICLES BETWEEN LAMBDA = 1 AND LAMBDA = 1
Info: FEP BOND ACTIVE FOR EXNIHILATED PARTICLES BETWEEN LAMBDA = 0 AND LAMBDA = 0
Info: LANGEVIN DYNAMICS ACTIVE
Info: LANGEVIN TEMPERATURE   300
Info: LANGEVIN USING BBK INTEGRATOR
Info: LANGEVIN DAMPING COEFFICIENT IS 1 INVERSE PS
Info: LANGEVIN DYNAMICS APPLIED TO HYDROGENS
Info: LANGEVIN PISTON PRESSURE CONTROL ACTIVE
Info:        TARGET PRESSURE IS 1.01325 BAR
Info:     OSCILLATION PERIOD IS 50 FS
Info:             DECAY TIME IS 25 FS
Info:     PISTON TEMPERATURE IS 300 K
Info:       PRESSURE CONTROL IS GROUP-BASED
Info:    INITIAL STRAIN RATE IS 0.000186857 0.000186857 0.000186857
Info:       CELL FLUCTUATION IS ISOTROPIC
Info: PARTICLE MESH EWALD (PME) ACTIVE
Info: PME TOLERANCE               1e-06
Info: PME EWALD COEFFICIENT       0.348832
Info: PME INTERPOLATION ORDER     4
Info: PME GRID DIMENSIONS         32 32 32
Info: PME MAXIMUM GRID SPACING    1
Info: FULL ELECTROSTATIC EVALUATION FREQUENCY      2
Info: USING VERLET I (r-RESPA) MTS SCHEME.
Info: C1 SPLITTING OF LONG RANGE ELECTROSTATICS
Info: PLACING ATOMS IN PATCHES BY HYDROGEN GROUPS
Info: RIGID BONDS TO HYDROGEN : ALL
Info:         ERROR TOLERANCE : 1e-08
Info:          MAX ITERATIONS : 100
Info: RIGID WATER USING SETTLE ALGORITHM
Info: RANDOM NUMBER SEED     1742181948
Info: USE HYDROGEN BONDS?    NO
Info: Using AMBER format force field!
Info: AMBER PARM FILE        mobley_2727678.prmtop
Info: COORDINATE PDB         mobley_2727678.pdb
Info: Exclusions will be read from PARM file!
Info: SCNB (VDW SCALING)     2
Info: USING ARITHMETIC MEAN TO COMBINE L-J SIGMA PARAMETERS
Info: BINARY COORDINATES     mobley_2727678_equil.coor
Info: MIXED PRECISION AVX-512 TILES OPTIMIZATIONS: DISABLED
Info: SUMMARY OF PARAMETERS:
Info: 10 BONDS
Info: 14 ANGLES
Info:   14 HARMONIC
Info:   0 COSINE-BASED
Info: 7 DIHEDRAL
Info: 0 IMPROPER
Info: 0 CROSSTERM
Info: 0 VDW
Info: 36 VDW_PAIRS
Info: 0 NBTHOLE_PAIRS
Info: To read alchdata from file: mobley_2727678.pdb
Info: To read alchflag data from column: 5
Info: STRUCTURE SUMMARY:
Info: 2985 ATOMS
Info: 2985 BONDS
Info: 18 ANGLES
Info: 31 DIHEDRALS
Info: 0 IMPROPERS
Info: 0 CROSSTERMS
Info: 3024 EXCLUSIONS
Info: 12 FIXED ATOMS
Info: 2976 RIGID BONDS
Info: 3 RIGID BONDS BETWEEN FIXED ATOMS
Info: ALCH: 0 ATOMS TO DISAPPEAR IN FINAL STATE
Info: ALCH: 12 ATOMS TO APPEAR IN FINAL STATE
Info: 5946 DEGREES OF FREEDOM
Info: 1000 HYDROGEN GROUPS
Info: 3 ATOMS IN LARGEST HYDROGEN GROUP
Info: 1000 MIGRATION GROUPS
Info: 3 ATOMS IN LARGEST MIGRATION GROUP
Info: 9 HYDROGEN GROUPS WITH ALL ATOMS FIXED
Info: TOTAL MASS = 18091.8 amu
Info: TOTAL CHARGE = 0.000100046 e
Info: MASS DENSITY = 0.969411 g/cm^3
Info: ATOM DENSITY = 0.0963186 atoms/A^3
Info: ADDED 0 IMPLICIT EXCLUSIONS
Info: NONBONDED TABLE R-SQUARED SPACING: 0.0625
Info: NONBONDED TABLE SIZE: 705 POINTS
Info: REMOVING COM VELOCITY -0.0206982 0.0906966 -0.090454
TCL: Running for 1500000 steps
ETITLE: TS BOND ANGLE DIHED IMPRP ELECT VDW BOUNDARY MISC KINETIC TOTAL TEMP POTENTIAL TOTAL3 TEMPAVG PRESSURE GPRESSURE VOLUME PRESSAVG GPRESSAVG
ENERGY: 0 0.0000 0.0000 0.0000 0.0000 -10934.0284 1398.6815 0.0000 0.0000 1825.1884 -7710.1585 308.9393 -9535.3469 -7706.6125 308.9393 -393.8505 -295.1558 30990.9033 -393.8505 -295.1558
ENERGY: 300000 0.0000 0.0000 0.0000 0.0000 -11100.2464 1571.4651 0.0000 0.0000 1770.4272 -7758.3542 299.6702 -9528.7813 -7757.0005 300.8416 1194.9554 1282.9933 30415.7202 3.1839 3.3716
ENERGY: 600000 0.0000 0.0000 0.0000 0.0000 -11084.5001 1432.0141 0.0000 0.0000 1787.6159 -7864.8702 302.5796 -9652.4861 -7862.3116 299.8922 -347.5473 -240.9963 30592.0720 3.2934 3.0915
ENERGY: 900000 0.0000 0.0000 0.0000 0.0000 -10925.6838 1508.7815 0.0000 0.0000 1724.8787 -7692.0236 291.9605 -9416.9023 -7690.8029 299.8606 817.8651 856.0528 31081.1579 4.1338 4.1599
ENERGY: 1200000 0.0000 0.0000 0.0000 0.0000 -11029.4290 1521.9295 0.0000 0.0000 1764.2968 -7743.2027 298.6325 -9507.4995 -7742.8664 299.9986 728.9561 837.3120 30554.1476 3.9563 3.9110
ENERGY: 1500000 0.0000 0.0000 0.0000 0.0000 -11055.5556 1415.3768 0.0000 0.0000 1792.5280 -7847.6508 303.4111 -9640.1788 -7846.4859 301.0637 -430.7288 -415.0834 30870.4301 2.9712 2.9373
TCL: Running FEP window   2: Lambda1 0.95   Lambda2 0.8999999999999999 [dLambda -0.050000000000000044]
TCL: Setting parameter firsttimestep to 0
TCL: Setting parameter alchLambda to 0.95
Info: NONBONDED TABLE R-SQUARED SPACING: 0.0625
Info: NONBONDED TABLE SIZE: 705 POINTS
TCL: Setting parameter alchLambda2 to 0.8999999999999999
Info: NONBONDED TABLE R-SQUARED SPACING: 0.0625
Info: NONBONDED TABLE SIZE: 705 POINTS
TCL: Running for 1500000 steps
ETITLE: TS BOND ANGLE DIHED IMPRP ELECT VDW BOUNDARY MISC KINETIC TOTAL TEMP POTENTIAL TOTAL3 TEMPAVG PRESSURE GPRESSURE VOLUME PRESSAVG GPRESSAVG
ENERGY: 0 0.0000 0.0000 0.0000 0.0000 -11051.4829 1414.1277 0.0000 0.0000 1791.6532 -7845.7019 303.2630 -9637.3552 -7843.8248 303.2630 -534.9958 -446.1833 30870.4301 -534.9958 -446.1833
ENERGY: 300000 0.0000 0.0000 0.0000 0.0000 -11066.4877 1504.3854 0.0000 0.0000 1741.8761 -7820.2262 294.8375 -9562.1023 -7817.4810 300.0408 155.7576 295.5621 31078.4238 2.7481 2.7368
ENERGY: 600000 0.0000 0.0000 0.0000 0.0000 -10983.6843 1443.3807 0.0000 0.0000 1772.3450 -7767.9586 299.9948 -9540.3036 -7763.8375 300.4669 103.4842 220.5420 30506.2572 3.0752 2.8383
ENERGY: 900000 0.0000 0.0000 0.0000 0.0000 -10937.7039 1403.4626 0.0000 0.0000 1762.0220 -7772.2193 298.2475 -9534.2413 -7769.7262 300.1420 -582.2496 -433.6902 31053.0239 2.3893 2.3299
ENERGY: 1200000 0.0000 0.0000 0.0000 0.0000 -10986.6278 1438.4952 0.0000 0.0000 1793.6614 -7754.4712 303.6029 -9548.1326 -7749.6889 299.9844 -119.0442 -89.5382 31095.0989 3.5450 3.5581
ENERGY: 1500000 0.0000 0.0000 0.0000 0.0000 -11006.2540 1399.3408 0.0000 0.0000 1788.5073 -7818.4059 302.7305 -9606.9132 -7813.3093 300.3626 -452.6217 -323.6014 30571.7568 3.6580 3.4957
TCL: Running FEP window   3: Lambda1 0.8999999999999999 Lambda2 0.8499999999999999 [dLambda -0.050000000000000044]
TCL: Setting parameter firsttimestep to 0
TCL: Setting parameter alchLambda to 0.8999999999999999
Info: NONBONDED TABLE R-SQUARED SPACING: 0.0625
Info: NONBONDED TABLE SIZE: 705 POINTS
TCL: Setting parameter alchLambda2 to 0.8499999999999999
Info: NONBONDED TABLE R-SQUARED SPACING: 0.0625
Info: NONBONDED TABLE SIZE: 705 POINTS
TCL: Running for 1500000 steps
ETITLE: TS BOND ANGLE DIHED IMPRP ELECT VDW BOUNDARY MISC KINETIC TOTAL TEMP POTENTIAL TOTAL3 TEMPAVG PRESSURE GPRESSURE VOLUME PRESSAVG GPRESSAVG
ENERGY: 0 0.0000 0.0000 0.0000 0.0000 -11002.0046 1397.3419 0.0000 0.0000 1787.6051 -7817.0576 302.5778 -9604.6627 -7814.4722 302.5778 -452.2327 -369.9642 30571.7568 -452.2327 -369.9642
ENERGY: 300000 0.0000 0.0000 0.0000 0.0000 -11158.6552 1527.9237 0.0000 0.0000 1708.2547 -7922.4768 289.1466 -9630.7315 -7919.8362 300.8731 541.0794 642.9064 30296.3450 3.7188 3.5643
ENERGY: 600000 0.0000 0.0000 0.0000 0.0000 -10904.8089 1433.8353 0.0000 0.0000 1747.3337 -7723.6399 295.7613 -9470.9736 -7720.1524 300.4040 52.2671 93.4878 30803.5625 2.7303 2.7690
ENERGY: 900000 0.0000 0.0000 0.0000 0.0000 -11060.0478 1570.3250 0.0000 0.0000 1774.5385 -7715.1842 300.3661 -9489.7227 -7711.5761 300.8746 1058.2549 1153.3226 30620.3344 4.5423 4.6428
ENERGY: 1200000 0.0000 0.0000 0.0000 0.0000 -10928.1247 1405.4505 0.0000 0.0000 1811.8689 -7710.8054 306.6848 -9522.6742 -7708.0076 300.4139 -95.4702 51.0371 30505.6118 3.5803 3.6567
ENERGY: 1500000 0.0000 0.0000 0.0000 0.0000 -10987.2194 1409.5638 0.0000 0.0000 1812.4633 -7765.1923 306.7854 -9577.6556 -7760.2584 300.3577 -332.2472 -216.9022 30953.2537 2.4433 2.5780
TCL: Running FEP window   4: Lambda1 0.8499999999999999 Lambda2 0.7999999999999998 [dLambda -0.050000000000000044]
TCL: Setting parameter firsttimestep to 0
TCL: Setting parameter alchLambda to 0.8499999999999999
Info: NONBONDED TABLE R-SQUARED SPACING: 0.0625
Info: NONBONDED TABLE SIZE: 705 POINTS
TCL: Setting parameter alchLambda2 to 0.7999999999999998
Info: NONBONDED TABLE R-SQUARED SPACING: 0.0625
Info: NONBONDED TABLE SIZE: 705 POINTS
TCL: Running for 1500000 steps
ETITLE: TS BOND ANGLE DIHED IMPRP ELECT VDW BOUNDARY MISC KINETIC TOTAL TEMP POTENTIAL TOTAL3 TEMPAVG PRESSURE GPRESSURE VOLUME PRESSAVG GPRESSAVG
ENERGY: 0 0.0000 0.0000 0.0000 0.0000 -10983.0957 1408.9658 0.0000 0.0000 1811.5878 -7762.5421 306.6372 -9574.1299 -7760.1236 306.6372 -323.5724 -237.4052 30953.2537 -323.5724 -237.4052
ENERGY: 300000 0.0000 0.0000 0.0000 0.0000 -11116.6574 1504.9049 0.0000 0.0000 1774.6538 -7837.0988 300.3856 -9611.7525 -7833.9421 299.5560 359.3889 482.4246 30385.7521 2.0399 2.1270
ENERGY: 600000 0.0000 0.0000 0.0000 0.0000 -10951.1609 1403.7752 0.0000 0.0000 1809.8763 -7737.5094 306.3475 -9547.3857 -7732.7255 299.8284 -550.2270 -477.9111 31059.8028 1.3055 1.3533
ENERGY: 900000 0.0000 0.0000 0.0000 0.0000 -11001.2061 1416.0832 0.0000 0.0000 1721.5570 -7863.5659 291.3982 -9585.1229 -7860.5559 300.4309 -366.0467 -335.1307 30878.0162 3.0403 2.9997
ENERGY: 1200000 0.0000 0.0000 0.0000 0.0000 -10860.4377 1340.5230 0.0000 0.0000 1764.0481 -7755.8666 298.5904 -9519.9148 -7754.7045 300.0029 -694.0630 -626.6324 30539.7638 2.3635 2.4979
ENERGY: 1500000 0.0000 0.0000 0.0000 0.0000 -11165.3220 1516.6100 0.0000 0.0000 1793.1696 -7855.5424 303.5197 -9648.7120 -7851.8427 300.5097 449.2968 573.5383 30236.0346 3.8041 3.6021
TCL: Running FEP window   5: Lambda1 0.7999999999999998 Lambda2 0.7499999999999998 [dLambda -0.050000000000000044]
TCL: Setting parameter firsttimestep to 0
TCL: Setting parameter alchLambda to 0.7999999999999998
Info: NONBONDED TABLE R-SQUARED SPACING: 0.0625
Info: NONBONDED TABLE SIZE: 705 POINTS
TCL: Setting parameter alchLambda2 to 0.7499999999999998
Info: NONBONDED TABLE R-SQUARED SPACING: 0.0625
Info: NONBONDED TABLE SIZE: 705 POINTS
TCL: Running for 1500000 steps
ETITLE: TS BOND ANGLE DIHED IMPRP ELECT VDW BOUNDARY MISC KINETIC TOTAL TEMP POTENTIAL TOTAL3 TEMPAVG PRESSURE GPRESSURE VOLUME PRESSAVG GPRESSAVG
ENERGY: 0 0.0000 0.0000 0.0000 0.0000 -11161.9768 1515.0264 0.0000 0.0000 1792.3120 -7854.6384 303.3745 -9646.9504 -7852.1760 303.3745 451.7696 537.3584 30236.0346 451.7696 537.3584
ENERGY: 100000 0.0000 0.0000 0.0000 0.0000 -11188.5629 1556.5046 0.0000 0.0000 1739.8525 -7892.2058 294.4950 -9632.0583 -7890.4079 300.2223 539.9744 671.6137 30700.3703 2.6884 2.8000
ENERGY: 200000 0.0000 0.0000 0.0000 0.0000 -10915.5936 1450.5889 0.0000 0.0000 1806.7146 -7658.2900 305.8124 -9465.0046 -7656.3799 300.2760 372.5224 415.7188 30570.1928 3.3499 3.2301
ENERGY: 400000 0.0000 0.0000 0.0000 0.0000 -10906.7930 1348.1128 0.0000 0.0000 1727.9691 -7830.7111 292.4836 -9558.6802 -7824.3499 300.1068 -845.6436 -799.0989 30918.3000 2.2046 2.1159
ENERGY: 500000 0.0000 0.0000 0.0000 0.0000 -10979.6085 1474.9634 0.0000 0.0000 1773.8437 -7730.8014 300.2485 -9504.6451 -7728.6593 300.4577 61.0778 176.4467 31017.7418 3.5153 3.3507
ENERGY: 600000 0.0000 0.0000 0.0000 0.0000 -10937.3064 1411.7822 0.0000 0.0000 1798.1761 -7727.3480 304.3671 -9525.5241 -7727.3636 299.8165 -380.3964 -332.8381 31070.7124 3.0166 3.1164
