Info: SIMULATION PARAMETERS:
Info: TIMESTEP               2
Info: NUMBER OF STEPS        0
Info: STEPS PER CYCLE        10
Info: PERIODIC CELL BASIS 1  44.675 0 0
Info: PERIODIC CELL BASIS 2  0 43.772 0
Info: PERIODIC CELL BASIS 3  0 0 39.119
Info: PERIODIC CELL CENTER   0 0 0
Info: WRAPPING WATERS AROUND PERIODIC BOUNDARIES ON OUTPUT.
Info: WRAPPING ALL CLUSTERS AROUND PERIODIC BOUNDARIES ON OUTPUT.
Info: FIRST LDB TIMESTEP     50
Info: LAST LDB TIMESTEP     -1
Info: HOM BACKGROUND SCALING 1
Info: PME BACKGROUND SCALING 1
Info: MIN ATOMS PER PATCH    40
Info: EMPTY PATCH LOAD       40 ATOMS
Info: INITIAL TEMPERATURE    300
Info: CENTER OF MASS MOVING INITIALLY? NO
Info: DIELECTRIC             1
Info: EXCLUDE                SCALED ONE-FOUR
Info: 1-4 ELECTROSTATICS SCALED BY 0.833333
Info: MODIFIED 1-4 VDW PARAMETERS WILL BE USED
Info: DCD FILENAME           mobley_9007496_min.dcd
Info: DCD FREQUENCY          5000
Info: DCD FIRST STEP         5000
Info: DCD FILE WILL CONTAIN UNIT CELL DATA
Info: XST FILENAME           mobley_9007496_min.xst
Info: XST FREQUENCY          5000
Info: NO VELOCITY DCD OUTPUT
Info: NO FORCE DCD OUTPUT
Info: OUTPUT FILENAME        mobley_9007496_min
Info: BINARY OUTPUT FILES WILL BE USED
Info: RESTART FILENAME       mobley_9007496_min.restart
Info: RESTART FREQUENCY      5000
Info: BINARY RESTART FILES WILL BE USED
Info: CUTOFF                 9
Info: PAIRLIST DISTANCE      11
Info: PAIRLIST SHRINK RATE   0.01
Info: PAIRLIST GROW RATE     0.01
Info: PAIRLIST TRIGGER       0.3
Info: PAIRLISTS PER CYCLE    2
Info: PAIRLISTS ENABLED
Info: MARGIN                 8
Info: HYDROGEN GROUP CUTOFF  2.5
Info: PATCH DIMENSION        21.5
Info: ENERGY OUTPUT STEPS    5000
Info: ENERGY EVALUATION STEPS    5000
Info: OUTPUT ENERGY PRECISION 4
Info: CROSSTERM ENERGY INCLUDED IN DIHEDRAL
Info: TIMING OUTPUT STEPS    50000
Info: PRESSURE OUTPUT STEPS  5000
Info: LANGEVIN DYNAMICS ACTIVE
Info: LANGEVIN TEMPERATURE   300
Info: LANGEVIN USING BBK INTEGRATOR
Info: LANGEVIN DAMPING COEFFICIENT IS 1 INVERSE PS
Info: LANGEVIN DYNAMICS APPLIED TO HYDROGENS
Info: LANGEVIN PISTON PRESSURE CONTROL ACTIVE
Info:        TARGET PRESSURE IS 1.01325 BAR
Info:     OSCILLATION PERIOD IS 50 FS
Info:             DECAY TIME IS 25 FS
Info:     PISTON TEMPERATURE IS 300 K
Info:       PRESSURE CONTROL IS GROUP-BASED
Info:    INITIAL STRAIN RATE IS 0 0 0
Info:       CELL FLUCTUATION IS ISOTROPIC
Info: PARTICLE MESH EWALD (PME) ACTIVE
Info: PME TOLERANCE               1e-06
Info: PME EWALD COEFFICIENT       0.348832
Info: PME INTERPOLATION ORDER     4
Info: PME GRID DIMENSIONS         48 44 40
Info: PME MAXIMUM GRID SPACING    1
Info: FULL ELECTROSTATIC EVALUATION FREQUENCY      2
Info: USING VERLET I (r-RESPA) MTS SCHEME.
Info: C1 SPLITTING OF LONG RANGE ELECTROSTATICS
Info: PLACING ATOMS IN PATCHES BY HYDROGEN GROUPS
Info: RIGID BONDS TO HYDROGEN : ALL
Info:         ERROR TOLERANCE : 1e-08
Info:          MAX ITERATIONS : 100
Info: RIGID WATER USING SETTLE ALGORITHM
Info: RANDOM NUMBER SEED     1741397920
Info: USE HYDROGEN BONDS?    NO
Info: Using AMBER format force field!
Info: AMBER PARM FILE        mobley_9007496.prmtop
Info: COORDINATE PDB         mobley_9007496.pdb
Info: Exclusions will be read from PARM file!
Info: SCNB (VDW SCALING)     2
Info: USING ARITHMETIC MEAN TO COMBINE L-J SIGMA PARAMETERS
Info: SUMMARY OF PARAMETERS:
Info: 11 BONDS
Info: 12 ANGLES
Info:   12 HARMONIC
Info:   0 COSINE-BASED
Info: 12 DIHEDRAL
Info: 0 IMPROPER
Info: 0 CROSSTERM
Info: 0 VDW
Info: 55 VDW_PAIRS
Info: 0 NBTHOLE_PAIRS
Info: STRUCTURE SUMMARY:
Info: 5504 ATOMS
Info: 5505 BONDS
Info: 43 ANGLES
Info: 70 DIHEDRALS
Info: 0 IMPROPERS
Info: 0 CROSSTERMS
Info: 5600 EXCLUSIONS
Info: 5489 RIGID BONDS
Info: 11023 DEGREES OF FREEDOM
Info: 1841 HYDROGEN GROUPS
Info: 4 ATOMS IN LARGEST HYDROGEN GROUP
Info: 1841 MIGRATION GROUPS
Info: 4 ATOMS IN LARGEST MIGRATION GROUP
Info: TOTAL MASS = 33098.4 amu
Info: TOTAL CHARGE = 0.000300014 e
Info: MASS DENSITY = 0.718485 g/cm^3
Info: ATOM DENSITY = 0.0719498 atoms/A^3
Info: ADDED 0 IMPLICIT EXCLUSIONS
Info: NONBONDED TABLE R-SQUARED SPACING: 0.0625
Info: NONBONDED TABLE SIZE: 705 POINTS
Info: REMOVING COM VELOCITY 0.0205825 -0.0632218 -0.0703476
TCL: Minimizing for 2000 steps
ETITLE: TS BOND ANGLE DIHED IMPRP ELECT VDW BOUNDARY MISC KINETIC TOTAL TEMP POTENTIAL TOTAL3 TEMPAVG PRESSURE GPRESSURE VOLUME PRESSAVG GPRESSAVG
ENERGY: 0 0.7733 3.0412 7.5483 0.0000 -16914.1433 1884.8679 0.0000 0.0000 0.0000 -15017.9126 0.0000 -15017.9126 -15017.9126 0.0000 10777.8604 -15711.7813 76497.7561 10777.8604 -15711.7813
ENERGY: 400 5.0033 2.6898 8.9709 0.0000 -23142.7729 3530.2385 0.0000 0.0000 0.0000 -19595.8704 0.0000 -19595.8704 -19595.8704 0.0000 16350.3426 16229.8111 76497.7561 16350.3426 16229.8111
ENERGY: 800 1.5038 1.3818 7.9219 0.0000 -24168.9530 3902.4184 0.0000 0.0000 0.0000 -20255.7271 0.0000 -20255.7271 -20255.7271 0.0000 17849.3526 17693.0798 76497.7561 17849.3526 17693.0798
ENERGY: 1200 1.0881 1.2140 7.6205 0.0000 -24655.0476 4093.9719 0.0000 0.0000 0.0000 -20551.1531 0.0000 -20551.1531 -20551.1531 0.0000 18690.5210 18520.6345 76497.7561 18690.5210 18520.6345
ENERGY: 1600 24.5238 9.2192 7.4286 0.0000 -24927.8765 4214.6144 0.0000 0.0000 0.0000 -20672.0905 0.0000 -20672.0905 -20672.0905 0.0000 19175.4807 18993.8544 76497.7561 19175.4807 18993.8544
ENERGY: 2000 0.5277 1.3393 7.3372 0.0000 -25100.1122 4297.6929 0.0000 0.0000 0.0000 -20793.2151 0.0000 -20793.2151 -20793.2151 0.0000 19580.8271 19349.8193 76497.7561 19580.8271 19349.8193
TCL: Exiting due to exit command.
Info: NAMD 3.0.1 for Linux-x86_64-multicore
Info: Please visit http://www.ks.uiuc.edu/Research/namd/
Info: for updates, documentation, and support information.
Info: Please cite Phillips et al., J. Chem. Phys. 153:044130 (2020) doi:10.1063/5.0014475
Info: in all publications reporting results obtained with NAMD.
Info: Based on Charm++/Converse 80000 for multicore-linux-x86_64-gcc
Info: Built Mon Oct 14 11:11:06 CDT 2024 by dhardy on athine.ks.uiuc.edu
Info: 1 NAMD  3.0.1  Linux-x86_64-multicore  16    k026  z5358697
Info: Running on 16 processors, 1 nodes, 1 physical nodes.
Info: CPU topology information available.
Info: Charm++/Converse parallel runtime startup completed at 0.00764075 s
Info: 1043.46 MB of memory in use based on /proc/self/stat
Info: Configuration file is mobley_9007496_equil.namd
Info: Working in the current directory /srv/scratch/z5358697/prod_prep_11/9007496
TCL: Running 25000 steps at 30 kelvin.
TCL: Suspending until startup complete.
Info: SIMULATION PARAMETERS:
Info: TIMESTEP               2
Info: NUMBER OF STEPS        0
Info: STEPS PER CYCLE        10
Info: PERIODIC CELL BASIS 1  44.675 0 0
Info: PERIODIC CELL BASIS 2  0 43.772 0
Info: PERIODIC CELL BASIS 3  0 0 39.119
Info: PERIODIC CELL CENTER   0 0 0
Info: WRAPPING WATERS AROUND PERIODIC BOUNDARIES ON OUTPUT.
Info: WRAPPING ALL CLUSTERS AROUND PERIODIC BOUNDARIES ON OUTPUT.
Info: FIRST LDB TIMESTEP     50
Info: LAST LDB TIMESTEP     -1
Info: HOM BACKGROUND SCALING 1
Info: PME BACKGROUND SCALING 1
Info: MIN ATOMS PER PATCH    40
Info: EMPTY PATCH LOAD       40 ATOMS
Info: INITIAL TEMPERATURE    300
Info: CENTER OF MASS MOVING INITIALLY? NO
Info: DIELECTRIC             1
Info: EXCLUDE                SCALED ONE-FOUR
Info: 1-4 ELECTROSTATICS SCALED BY 0.833333
Info: MODIFIED 1-4 VDW PARAMETERS WILL BE USED
Info: DCD FILENAME           mobley_9007496_equil.dcd
Info: DCD FREQUENCY          5000
Info: DCD FIRST STEP         5000
Info: DCD FILE WILL CONTAIN UNIT CELL DATA
Info: XST FILENAME           mobley_9007496_equil.xst
Info: XST FREQUENCY          5000
Info: NO VELOCITY DCD OUTPUT
Info: NO FORCE DCD OUTPUT
Info: OUTPUT FILENAME        mobley_9007496_equil
Info: BINARY OUTPUT FILES WILL BE USED
Info: RESTART FILENAME       mobley_9007496_equil.restart
Info: RESTART FREQUENCY      5000
Info: BINARY RESTART FILES WILL BE USED
Info: CUTOFF                 9
Info: PAIRLIST DISTANCE      11
Info: PAIRLIST SHRINK RATE   0.01
Info: PAIRLIST GROW RATE     0.01
Info: PAIRLIST TRIGGER       0.3
Info: PAIRLISTS PER CYCLE    2
Info: PAIRLISTS ENABLED
Info: MARGIN                 8
Info: HYDROGEN GROUP CUTOFF  2.5
Info: PATCH DIMENSION        21.5
Info: ENERGY OUTPUT STEPS    5000
Info: ENERGY EVALUATION STEPS    5000
Info: OUTPUT ENERGY PRECISION 4
Info: CROSSTERM ENERGY INCLUDED IN DIHEDRAL
Info: TIMING OUTPUT STEPS    50000
Info: PRESSURE OUTPUT STEPS  5000
Info: LANGEVIN DYNAMICS ACTIVE
Info: LANGEVIN TEMPERATURE   30
Info: LANGEVIN USING BBK INTEGRATOR
Info: LANGEVIN DAMPING COEFFICIENT IS 1 INVERSE PS
Info: LANGEVIN DYNAMICS APPLIED TO HYDROGENS
Info: LANGEVIN PISTON PRESSURE CONTROL ACTIVE
Info:        TARGET PRESSURE IS 1.01325 BAR
Info:     OSCILLATION PERIOD IS 50 FS
Info:             DECAY TIME IS 25 FS
Info:     PISTON TEMPERATURE IS 300 K
Info:       PRESSURE CONTROL IS GROUP-BASED
Info:    INITIAL STRAIN RATE IS 0 0 0
Info:       CELL FLUCTUATION IS ISOTROPIC
Info: PARTICLE MESH EWALD (PME) ACTIVE
Info: PME TOLERANCE               1e-06
Info: PME EWALD COEFFICIENT       0.348832
Info: PME INTERPOLATION ORDER     4
Info: PME GRID DIMENSIONS         48 44 40
Info: PME MAXIMUM GRID SPACING    1
Info: FULL ELECTROSTATIC EVALUATION FREQUENCY      2
Info: USING VERLET I (r-RESPA) MTS SCHEME.
Info: C1 SPLITTING OF LONG RANGE ELECTROSTATICS
Info: PLACING ATOMS IN PATCHES BY HYDROGEN GROUPS
Info: RIGID BONDS TO HYDROGEN : ALL
Info:         ERROR TOLERANCE : 1e-08
Info:          MAX ITERATIONS : 100
Info: RIGID WATER USING SETTLE ALGORITHM
Info: RANDOM NUMBER SEED     1741397946
Info: USE HYDROGEN BONDS?    NO
Info: Using AMBER format force field!
Info: AMBER PARM FILE        mobley_9007496.prmtop
Info: COORDINATE PDB         mobley_9007496.pdb
Info: Exclusions will be read from PARM file!
Info: SCNB (VDW SCALING)     2
Info: USING ARITHMETIC MEAN TO COMBINE L-J SIGMA PARAMETERS
Info: BINARY COORDINATES     mobley_9007496_min.coor
Info: SUMMARY OF PARAMETERS:
Info: 11 BONDS
Info: 12 ANGLES
Info:   12 HARMONIC
Info:   0 COSINE-BASED
Info: 12 DIHEDRAL
Info: 0 IMPROPER
Info: 0 CROSSTERM
Info: 0 VDW
Info: 55 VDW_PAIRS
Info: 0 NBTHOLE_PAIRS
Info: STRUCTURE SUMMARY:
Info: 5504 ATOMS
Info: 5505 BONDS
Info: 43 ANGLES
Info: 70 DIHEDRALS
Info: 0 IMPROPERS
Info: 0 CROSSTERMS
Info: 5600 EXCLUSIONS
Info: 5489 RIGID BONDS
Info: 11023 DEGREES OF FREEDOM
Info: 1841 HYDROGEN GROUPS
Info: 4 ATOMS IN LARGEST HYDROGEN GROUP
Info: 1841 MIGRATION GROUPS
Info: 4 ATOMS IN LARGEST MIGRATION GROUP
Info: TOTAL MASS = 33098.4 amu
Info: TOTAL CHARGE = 0.000300014 e
Info: MASS DENSITY = 0.718485 g/cm^3
Info: ATOM DENSITY = 0.0719498 atoms/A^3
Info: ADDED 0 IMPLICIT EXCLUSIONS
Info: NONBONDED TABLE R-SQUARED SPACING: 0.0625
Info: NONBONDED TABLE SIZE: 705 POINTS
Info: REMOVING COM VELOCITY 0.175478 -0.101724 0.0793369
TCL: Running for 25000 steps
ETITLE: TS BOND ANGLE DIHED IMPRP ELECT VDW BOUNDARY MISC KINETIC TOTAL TEMP POTENTIAL TOTAL3 TEMPAVG PRESSURE GPRESSURE VOLUME PRESSAVG GPRESSAVG
ENERGY: 0 0.5277 1.3393 7.3372 0.0000 -25100.1122 4297.6929 0.0000 0.0000 3255.0647 -17538.1503 297.2010 -20793.2151 -17537.4735 297.2010 15.3323 53.8134 76497.7561 15.3323 53.8134
ENERGY: 5000 1.6178 1.5408 8.7948 0.0000 -26115.3449 4267.9029 0.0000 0.0000 334.1709 -21501.3177 30.5112 -21835.4886 -21500.0046 48.1296 -1385.9695 -1316.4522 54339.2910 -0.6354 -0.4652
ENERGY: 10000 0.9820 1.4289 9.0216 0.0000 -26554.5776 4664.3338 0.0000 0.0000 339.6651 -21539.1461 31.0128 -21878.8112 -21538.2504 30.2523 454.5579 521.1005 53538.6439 -3.0901 -2.9391
ENERGY: 15000 1.0269 1.3250 8.1699 0.0000 -26354.2670 4459.0604 0.0000 0.0000 324.8286 -21559.8563 29.6582 -21884.6849 -21558.9009 30.1958 -522.8276 -482.1359 53991.6648 6.3093 6.3299
ENERGY: 20000 0.7000 1.0370 7.9463 0.0000 -26500.3013 4591.3541 0.0000 0.0000 328.1210 -21571.1429 29.9588 -21899.2639 -21570.2417 29.9860 72.0936 114.9099 53685.9001 4.4065 4.6941
ENERGY: 25000 0.3685 1.8833 8.1538 0.0000 -26534.5666 4630.4081 0.0000 0.0000 328.2419 -21565.5111 29.9698 -21893.7529 -21564.5700 29.9430 254.5079 310.3930 53699.8407 1.8184 1.8366
TCL: Running 25000 steps at 60 kelvin.
TCL: Setting parameter langevinTemp to 60
TCL: Running for 25000 steps
ETITLE: TS BOND ANGLE DIHED IMPRP ELECT VDW BOUNDARY MISC KINETIC TOTAL TEMP POTENTIAL TOTAL3 TEMPAVG PRESSURE GPRESSURE VOLUME PRESSAVG GPRESSAVG
ENERGY: 25000 0.3685 1.8833 8.1538 0.0000 -26534.5666 4630.4081 0.0000 0.0000 328.0743 -21565.6786 29.9546 -21893.7529 -21565.0575 29.9546 253.6788 310.3354 53699.8407 253.6788 310.3354
ENERGY: 30000 1.6377 1.7050 9.4128 0.0000 -26009.3757 4386.5432 0.0000 0.0000 686.5225 -20923.5545 62.6824 -21610.0770 -20921.6688 56.5771 -311.3145 -242.5082 54099.5215 3.5259 3.4724
ENERGY: 35000 1.1121 2.6550 8.1706 0.0000 -26046.0286 4349.2831 0.0000 0.0000 647.0214 -21037.7865 59.0757 -21684.8079 -21036.6709 59.8543 -644.5065 -610.3938 54168.6355 4.6344 4.8400
ENERGY: 40000 2.4567 1.7202 8.2927 0.0000 -26213.8809 4498.1568 0.0000 0.0000 667.7752 -21035.4793 60.9707 -21703.2545 -21033.1692 60.1400 30.1321 110.8506 53742.3552 6.1771 6.2123
ENERGY: 45000 1.4496 2.4387 8.1537 0.0000 -26417.6575 4682.8096 0.0000 0.0000 664.8912 -21057.9147 60.7073 -21722.8059 -21056.2246 60.1065 872.5304 941.4393 53381.1082 2.1055 1.6672
ENERGY: 50000 1.3475 2.1620 8.4739 0.0000 -26356.7855 4633.2544 0.0000 0.0000 645.8575 -21065.6903 58.9695 -21711.5478 -21064.5702 60.0735 688.3654 746.4967 53423.6252 1.6706 1.4844
TCL: Running 25000 steps at 90 kelvin.
TCL: Setting parameter langevinTemp to 90
TCL: Running for 25000 steps
ETITLE: TS BOND ANGLE DIHED IMPRP ELECT VDW BOUNDARY MISC KINETIC TOTAL TEMP POTENTIAL TOTAL3 TEMPAVG PRESSURE GPRESSURE VOLUME PRESSAVG GPRESSAVG
ENERGY: 50000 1.3475 2.1620 8.4739 0.0000 -26356.7855 4633.2544 0.0000 0.0000 645.5290 -21066.0187 58.9395 -21711.5478 -21064.8584 58.9395 681.5947 746.1900 53423.6252 681.5947 746.1900
ENERGY: 55000 1.2593 1.9162 9.2577 0.0000 -25691.8803 4247.6449 0.0000 0.0000 978.2950 -20453.5071 89.3224 -21431.8021 -20450.4951 86.7982 -484.9189 -467.8710 54035.7526 1.9030 1.9581
ENERGY: 60000 2.4115 3.2854 9.1648 0.0000 -25630.8041 4187.1569 0.0000 0.0000 973.7484 -20455.0370 88.9073 -21428.7854 -20453.1330 90.5008 -954.0069 -892.3076 54351.2461 -0.0923 0.0374
ENERGY: 65000 1.8566 4.1156 10.2294 0.0000 -25770.9722 4283.0770 0.0000 0.0000 974.3570 -20497.3365 88.9628 -21471.6935 -20495.1304 90.1943 -567.8314 -534.2725 54108.9826 7.8037 8.2103
ENERGY: 70000 2.2126 2.7506 7.3278 0.0000 -25819.4943 4308.8892 0.0000 0.0000 977.6735 -20520.6405 89.2657 -21498.3140 -20518.0904 90.1570 -510.4207 -471.0267 54051.4898 7.2048 7.5549
ENERGY: 75000 1.9712 2.8322 7.2175 0.0000 -25820.6948 4304.7884 0.0000 0.0000 1023.9687 -20479.9167 93.4926 -21503.8854 -20477.0037 90.8243 -502.5505 -457.8819 54105.6899 -4.1620 -3.9813
TCL: Running 25000 steps at 120 kelvin.
TCL: Setting parameter langevinTemp to 120
TCL: Running for 25000 steps
ETITLE: TS BOND ANGLE DIHED IMPRP ELECT VDW BOUNDARY MISC KINETIC TOTAL TEMP POTENTIAL TOTAL3 TEMPAVG PRESSURE GPRESSURE VOLUME PRESSAVG GPRESSAVG
ENERGY: 75000 1.9712 2.8322 7.2175 0.0000 -25820.6948 4304.7884 0.0000 0.0000 1023.4766 -20480.4088 93.4477 -21503.8854 -20478.0253 93.4477 -503.6466 -457.6099 54105.6899 -503.6466 -457.6099
ENERGY: 80000 2.6104 4.0513 9.4052 0.0000 -25376.2727 4227.1832 0.0000 0.0000 1311.6754 -19821.3472 119.7614 -21133.0226 -19818.2889 116.9186 -93.6023 -39.4237 53964.5325 -2.1480 -2.5039
ENERGY: 85000 2.6423 2.9809 9.1230 0.0000 -25443.9442 4233.7491 0.0000 0.0000 1290.5513 -19904.8976 117.8327 -21195.4489 -19901.7969 119.6033 -186.4676 -141.8888 54162.5661 0.3641 0.5280
ENERGY: 90000 5.1822 2.9689 9.1107 0.0000 -25319.1373 4075.4746 0.0000 0.0000 1335.6285 -19890.7723 121.9484 -21226.4009 -19887.7855 120.1152 -1009.0642 -951.9967 54196.7197 -2.1254 -1.8220
ENERGY: 95000 2.0459 4.4161 9.7148 0.0000 -25543.2490 4256.6985 0.0000 0.0000 1314.7330 -19955.6408 120.0406 -21270.3738 -19953.5983 120.0693 -176.6295 -123.1405 53766.6248 -0.7003 -0.7506
ENERGY: 100000 3.5915 3.8269 11.6152 0.0000 -25415.1721 4107.0000 0.0000 0.0000 1293.4548 -19995.6836 118.0978 -21289.1384 -19991.8721 120.0325 -1112.0123 -1041.6282 54393.8419 3.4583 3.7781
TCL: Running 25000 steps at 150 kelvin.
TCL: Setting parameter langevinTemp to 150
TCL: Running for 25000 steps
ETITLE: TS BOND ANGLE DIHED IMPRP ELECT VDW BOUNDARY MISC KINETIC TOTAL TEMP POTENTIAL TOTAL3 TEMPAVG PRESSURE GPRESSURE VOLUME PRESSAVG GPRESSAVG
ENERGY: 100000 3.5915 3.8269 11.6152 0.0000 -25415.1721 4107.0000 0.0000 0.0000 1292.7979 -19996.3405 118.0378 -21289.1384 -19993.7514 118.0378 -1096.6809 -1041.9044 54393.8419 -1096.6809 -1041.9044
ENERGY: 105000 2.3370 4.3692 8.5202 0.0000 -24890.3982 4047.1340 0.0000 0.0000 1665.3728 -19162.6650 152.0555 -20828.0378 -19158.6672 146.3508 -334.1820 -276.5245 54440.2877 0.0140 -0.0884
ENERGY: 110000 3.5352 5.5158 9.8805 0.0000 -25051.2846 4130.9459 0.0000 0.0000 1630.3256 -19271.0816 148.8555 -20901.4072 -19267.0981 150.5764 50.1817 104.6102 53805.8697 2.4856 1.9999
ENERGY: 115000 4.1351 5.2336 11.5936 0.0000 -25189.7356 4214.7904 0.0000 0.0000 1598.8521 -19355.1308 145.9818 -20953.9828 -19351.6101 149.9658 398.3121 443.7373 53383.5454 -3.4613 -4.0716
ENERGY: 120000 4.6565 3.0446 10.9107 0.0000 -25015.1537 4037.2276 0.0000 0.0000 1648.0440 -19311.2704 150.4733 -20959.3143 -19306.6729 150.5334 -583.7369 -518.3870 54127.9643 4.1865 3.4451
ENERGY: 125000 1.5600 4.1919 8.3120 0.0000 -25175.5416 4191.9036 0.0000 0.0000 1609.2427 -19360.3315 146.9306 -20969.5741 -19357.1670 150.4611 134.6325 194.7358 53658.4674 -0.9550 -0.7019
TCL: Running 50000 steps at 180 kelvin.
TCL: Setting parameter langevinTemp to 180
TCL: Running for 50000 steps
ETITLE: TS BOND ANGLE DIHED IMPRP ELECT VDW BOUNDARY MISC KINETIC TOTAL TEMP POTENTIAL TOTAL3 TEMPAVG PRESSURE GPRESSURE VOLUME PRESSAVG GPRESSAVG
ENERGY: 125000 1.5600 4.1919 8.3120 0.0000 -25175.5416 4191.9036 0.0000 0.0000 1608.4403 -19361.1339 146.8573 -20969.5741 -19357.7370 146.8573 140.6863 194.5421 53658.4674 140.6863 194.5421
ENERGY: 135000 3.1885 5.1989 12.7000 0.0000 -24658.5220 4098.7176 0.0000 0.0000 1966.9369 -18571.7801 179.5895 -20538.7169 -18566.1816 179.6501 574.0537 649.5294 53885.1490 6.0431 5.9716
ENERGY: 145000 3.8914 3.4611 9.3245 0.0000 -24608.3387 4086.5284 0.0000 0.0000 1981.2177 -18523.9156 180.8934 -20505.1332 -18518.0611 179.9476 473.1960 491.5311 54057.0788 4.9664 4.5152
ENERGY: 155000 2.6772 6.6498 9.0370 0.0000 -24425.4924 3922.3921 0.0000 0.0000 1951.6149 -18533.1215 178.1906 -20484.7364 -18526.8238 179.0442 -179.1719 -109.0228 54089.9529 4.5400 3.6480
ENERGY: 165000 4.3631 4.8783 12.5979 0.0000 -24502.8057 3948.7261 0.0000 0.0000 1957.8908 -18574.3495 178.7636 -20532.2404 -18569.3415 179.7939 -193.4274 -141.2758 54104.0915 3.6634 3.8090
ENERGY: 175000 4.8499 5.3361 11.7175 0.0000 -24283.4103 3819.9282 0.0000 0.0000 2017.6860 -18423.8926 184.2231 -20441.5785 -18419.3650 179.2115 -536.8979 -482.6875 54177.9404 5.2838 5.1472
TCL: Running 50000 steps at 210 kelvin.
TCL: Setting parameter langevinTemp to 210
TCL: Running for 50000 steps
ETITLE: TS BOND ANGLE DIHED IMPRP ELECT VDW BOUNDARY MISC KINETIC TOTAL TEMP POTENTIAL TOTAL3 TEMPAVG PRESSURE GPRESSURE VOLUME PRESSAVG GPRESSAVG
ENERGY: 175000 4.8499 5.3361 11.7175 0.0000 -24283.4103 3819.9282 0.0000 0.0000 2016.7161 -18424.8625 184.1346 -20441.5785 -18420.8911 184.1346 -544.4164 -483.1389 54177.9404 -544.4164 -483.1389
ENERGY: 185000 4.7706 7.0431 11.2763 0.0000 -23026.5884 3398.3736 0.0000 0.0000 2266.6310 -17338.4939 206.9528 -19605.1249 -17332.1951 209.0751 -637.8542 -562.1010 54070.8426 0.2875 0.8453
ENERGY: 195000 5.7140 4.8658 10.5140 0.0000 -23057.3404 3349.2488 0.0000 0.0000 2264.0664 -17422.9312 206.7187 -19686.9977 -17416.0799 209.9083 -1018.1866 -930.0781 53753.4218 0.9402 1.1188
ENERGY: 205000 2.6899 6.6725 10.6815 0.0000 -23109.5358 3447.4854 0.0000 0.0000 2308.8211 -17333.1854 210.8050 -19642.0065 -17327.3444 210.6933 -380.2649 -310.9692 53375.6195 5.8696 5.7622
ENERGY: 215000 4.0837 5.0053 8.6338 0.0000 -23124.2524 3468.4599 0.0000 0.0000 2268.4378 -17369.6320 207.1178 -19638.0698 -17365.5472 211.7328 -370.0964 -281.0535 53669.1788 0.8614 0.3665
ENERGY: 225000 4.6140 5.2693 8.1055 0.0000 -23229.1312 3564.8683 0.0000 0.0000 2316.4155 -17329.8584 211.4984 -19646.2740 -17326.0898 210.6534 171.7635 260.6432 53436.8012 4.5706 4.8624
TCL: Running 50000 steps at 240 kelvin.
TCL: Setting parameter langevinTemp to 240
TCL: Running for 50000 steps
ETITLE: TS BOND ANGLE DIHED IMPRP ELECT VDW BOUNDARY MISC KINETIC TOTAL TEMP POTENTIAL TOTAL3 TEMPAVG PRESSURE GPRESSURE VOLUME PRESSAVG GPRESSAVG
ENERGY: 225000 4.6140 5.2693 8.1055 0.0000 -23229.1312 3564.8683 0.0000 0.0000 2315.2386 -17331.0353 211.3909 -19646.2740 -17327.0714 211.3909 167.3352 260.7170 53436.8012 167.3352 260.7170
ENERGY: 235000 3.0402 8.0394 9.4326 0.0000 -22180.1714 3286.1380 0.0000 0.0000 2687.4401 -16186.0811 245.3745 -18873.5211 -16180.4163 239.2499 374.8640 475.8864 53767.7116 2.1906 2.1923
ENERGY: 245000 5.9886 9.2169 10.8457 0.0000 -22044.0298 3198.6161 0.0000 0.0000 2599.7701 -16219.5925 237.3698 -18819.3626 -16214.0505 240.8830 73.5881 162.9137 53535.3166 5.7346 5.8861
ENERGY: 255000 4.2654 8.1776 10.8911 0.0000 -22098.8476 3206.0554 0.0000 0.0000 2663.1560 -16206.3020 243.1572 -18869.4580 -16201.3646 239.9974 -45.3105 27.8735 54102.8990 -2.1265 -2.4685
ENERGY: 265000 2.4436 6.4493 13.7799 0.0000 -22020.6135 3140.9722 0.0000 0.0000 2660.7434 -16196.2252 242.9369 -18856.9686 -16189.2506 241.7624 -529.5332 -387.2855 54962.8684 3.5359 3.2407
ENERGY: 275000 2.6211 7.4999 10.0669 0.0000 -22070.6379 3243.4705 0.0000 0.0000 2623.4530 -16183.5264 239.5322 -18806.9795 -16182.2803 241.2452 23.0033 168.7143 54452.9067 2.7002 2.4679
TCL: Running 50000 steps at 270 kelvin.
TCL: Setting parameter langevinTemp to 270
TCL: Running for 50000 steps
ETITLE: TS BOND ANGLE DIHED IMPRP ELECT VDW BOUNDARY MISC KINETIC TOTAL TEMP POTENTIAL TOTAL3 TEMPAVG PRESSURE GPRESSURE VOLUME PRESSAVG GPRESSAVG
ENERGY: 275000 2.6211 7.4999 10.0669 0.0000 -22070.6379 3243.4705 0.0000 0.0000 2622.1279 -16184.8516 239.4112 -18806.9795 -16179.9004 239.4112 82.6707 166.5497 54452.9067 82.6707 166.5497
ENERGY: 285000 4.4935 5.7543 14.7076 0.0000 -20976.6760 2990.5395 0.0000 0.0000 2920.6163 -15040.5648 266.6644 -17961.1810 -15036.1582 270.0774 372.5297 461.4667 55185.2913 1.4443 1.3114
ENERGY: 295000 3.5319 5.7369 8.3073 0.0000 -21208.4307 3138.9119 0.0000 0.0000 2953.9839 -15097.9588 269.7110 -18051.9427 -15092.6513 269.2439 832.0594 927.7592 55012.5265 3.7863 4.2211
ENERGY: 305000 6.0711 7.9609 9.3502 0.0000 -20659.0070 2745.9592 0.0000 0.0000 2955.9319 -14933.7337 269.8889 -17889.6656 -14930.7708 270.0174 -611.7577 -535.8420 55570.0904 2.6725 2.6569
ENERGY: 315000 3.6587 7.2656 15.5602 0.0000 -21128.5621 3013.3650 0.0000 0.0000 2923.0263 -15165.6864 266.8845 -18088.7127 -15159.1593 270.9867 180.7774 222.0783 55325.0996 -2.3268 -2.5909
ENERGY: 325000 2.6679 6.6425 13.0889 0.0000 -20855.7252 2851.6746 0.0000 0.0000 3009.2467 -14972.4045 274.7567 -17981.6512 -14965.0657 270.0397 -219.0589 -125.8654 55340.8553 3.6254 3.7023
TCL: Running 1000000 steps at 300 kelvin.
TCL: Setting parameter langevinTemp to 300
TCL: Running for 1000000 steps
ETITLE: TS BOND ANGLE DIHED IMPRP ELECT VDW BOUNDARY MISC KINETIC TOTAL TEMP POTENTIAL TOTAL3 TEMPAVG PRESSURE GPRESSURE VOLUME PRESSAVG GPRESSAVG
ENERGY: 325000 2.6679 6.6425 13.0889 0.0000 -20855.7252 2851.6746 0.0000 0.0000 3007.8151 -14973.8361 274.6260 -17981.6512 -14969.1356 274.6260 -217.3301 -125.8823 55340.8553 -217.3301 -125.8823
ENERGY: 525000 2.8864 8.5188 9.2950 0.0000 -19906.5849 2546.4398 0.0000 0.0000 3180.6237 -14158.8212 290.4042 -17339.4449 -14153.6030 299.9198 -726.0986 -702.6395 57088.2832 2.5145 2.7257
ENERGY: 725000 2.8544 8.6896 13.9864 0.0000 -19996.0996 2717.4988 0.0000 0.0000 3292.2732 -13960.7971 300.5982 -17253.0703 -13955.0483 299.1273 113.8734 231.5625 56443.9607 5.5802 4.7153
ENERGY: 925000 1.6741 7.7029 10.1928 0.0000 -20063.8844 2732.9260 0.0000 0.0000 3236.5718 -14074.8167 295.5125 -17311.3885 -14069.5162 299.7689 48.5829 148.0334 56658.2117 3.6905 4.0637
ENERGY: 1125000 4.6697 8.0631 11.0101 0.0000 -20101.1923 2759.0605 0.0000 0.0000 3299.6698 -14018.7191 301.2736 -17318.3889 -14011.3599 298.5712 448.4851 534.3851 55999.4000 -0.6640 -0.8017
ENERGY: 1325000 4.7407 8.6366 11.8459 0.0000 -19890.8773 2631.2555 0.0000 0.0000 3246.6705 -13987.7281 296.4345 -17234.3986 -13979.2558 300.2582 -209.8281 -98.6141 56842.8699 3.0931 2.9852
TCL: Exiting due to exit command.
