Info: SIMULATION PARAMETERS:
Info: TIMESTEP               2
Info: NUMBER OF STEPS        0
Info: STEPS PER CYCLE        10
Info: PERIODIC CELL BASIS 1  30.3617 0 0
Info: PERIODIC CELL BASIS 2  0 31.4304 0
Info: PERIODIC CELL BASIS 3  0 0 31.7073
Info: PERIODIC CELL CENTER   0 0 0
Info: WRAPPING WATERS AROUND PERIODIC BOUNDARIES ON OUTPUT.
Info: WRAPPING ALL CLUSTERS AROUND PERIODIC BOUNDARIES ON OUTPUT.
Info: FIRST LDB TIMESTEP     50
Info: LAST LDB TIMESTEP     -1
Info: HOM BACKGROUND SCALING 1
Info: PME BACKGROUND SCALING 1
Info: MIN ATOMS PER PATCH    40
Info: EMPTY PATCH LOAD       40 ATOMS
Info: VELOCITY FILE          mobley_7578802_equil.vel
Info: CENTER OF MASS MOVING INITIALLY? NO
Info: DIELECTRIC             1
Info: EXCLUDE                SCALED ONE-FOUR
Info: 1-4 ELECTROSTATICS SCALED BY 0.833333
Info: MODIFIED 1-4 VDW PARAMETERS WILL BE USED
Info: DCD FILENAME           mobley_7578802_prod.dcd
Info: DCD FREQUENCY          100000
Info: DCD FIRST STEP         100000
Info: DCD FILE WILL CONTAIN UNIT CELL DATA
Info: XST FILENAME           mobley_7578802_prod.xst
Info: XST FREQUENCY          100000
Info: NO VELOCITY DCD OUTPUT
Info: NO FORCE DCD OUTPUT
Info: OUTPUT FILENAME        mobley_7578802_prod
Info: BINARY OUTPUT FILES WILL BE USED
Info: RESTART FILENAME       mobley_7578802_prod.restart
Info: RESTART FREQUENCY      100000
Info: BINARY RESTART FILES WILL BE USED
Info: CUTOFF                 9
Info: PAIRLIST DISTANCE      11
Info: PAIRLIST SHRINK RATE   0.01
Info: PAIRLIST GROW RATE     0.01
Info: PAIRLIST TRIGGER       0.3
Info: PAIRLISTS PER CYCLE    2
Info: PAIRLISTS ENABLED
Info: MARGIN                 2
Info: HYDROGEN GROUP CUTOFF  2.5
Info: PATCH DIMENSION        15.5
Info: ENERGY OUTPUT STEPS    100000
Info: ENERGY EVALUATION STEPS    100000
Info: OUTPUT ENERGY PRECISION 4
Info: CROSSTERM ENERGY INCLUDED IN DIHEDRAL
Info: TIMING OUTPUT STEPS    1000000
Info: PRESSURE OUTPUT STEPS  100000
Info: ALCHEMICAL FEP ON
Info: FEP CURRENT LAMBDA VALUE     0
Info: FEP COMPARISON LAMBDA VALUE  0.05
Info: FEP INTRA-ALCHEMICAL NON-BONDED INTERACTIONS WILL BE RETAINED
Info: FEP INTRA-ALCHEMICAL BONDED INTERACTIONS WILL BE RETAINED
Info: FEP VDW SHIFTING COEFFICIENT 5
Info: FEP ELEC. ACTIVE FOR ANNIHILATED PARTICLES BETWEEN LAMBDA = 0 AND LAMBDA = 0.5
Info: FEP ELEC. ACTIVE FOR EXNIHILATED PARTICLES BETWEEN LAMBDA = 0.5 AND LAMBDA = 1
Info: FEP VDW ACTIVE FOR ANNIHILATED PARTICLES BETWEEN LAMBDA = 0 AND LAMBDA = 1
Info: FEP VDW ACTIVE FOR EXNIHILATED PARTICLES BETWEEN LAMBDA = 0 AND LAMBDA = 1
Info: FEP BOND ACTIVE FOR ANNIHILATED PARTICLES BETWEEN LAMBDA = 1 AND LAMBDA = 1
Info: FEP BOND ACTIVE FOR EXNIHILATED PARTICLES BETWEEN LAMBDA = 0 AND LAMBDA = 0
Info: LANGEVIN DYNAMICS ACTIVE
Info: LANGEVIN TEMPERATURE   300
Info: LANGEVIN USING BBK INTEGRATOR
Info: LANGEVIN DAMPING COEFFICIENT IS 1 INVERSE PS
Info: LANGEVIN DYNAMICS APPLIED TO HYDROGENS
Info: LANGEVIN PISTON PRESSURE CONTROL ACTIVE
Info:        TARGET PRESSURE IS 1.01325 BAR
Info:     OSCILLATION PERIOD IS 50 FS
Info:             DECAY TIME IS 25 FS
Info:     PISTON TEMPERATURE IS 300 K
Info:       PRESSURE CONTROL IS GROUP-BASED
Info:    INITIAL STRAIN RATE IS 0.000439166 0.000439166 0.000439166
Info:       CELL FLUCTUATION IS ISOTROPIC
Info: PARTICLE MESH EWALD (PME) ACTIVE
Info: PME TOLERANCE               1e-06
Info: PME EWALD COEFFICIENT       0.348832
Info: PME INTERPOLATION ORDER     4
Info: PME GRID DIMENSIONS         32 32 32
Info: PME MAXIMUM GRID SPACING    1
Info: PME CALCULATION WILL BE PERFORMED ON GPU
Info: FULL ELECTROSTATIC EVALUATION FREQUENCY      2
Info: USING VERLET I (r-RESPA) MTS SCHEME.
Info: C1 SPLITTING OF LONG RANGE ELECTROSTATICS
Info: PLACING ATOMS IN PATCHES BY HYDROGEN GROUPS
Info: RIGID BONDS TO HYDROGEN : ALL
Info:         ERROR TOLERANCE : 1e-08
Info:          MAX ITERATIONS : 100
Info: RIGID WATER USING SETTLE ALGORITHM
Info: RANDOM NUMBER SEED     1741957570
Info: USE HYDROGEN BONDS?    NO
Info: Using AMBER format force field!
Info: AMBER PARM FILE        mobley_7578802.prmtop
Info: COORDINATE PDB         mobley_7578802.pdb
Info: Exclusions will be read from PARM file!
Info: SCNB (VDW SCALING)     2
Info: USING ARITHMETIC MEAN TO COMBINE L-J SIGMA PARAMETERS
Info: BINARY COORDINATES     mobley_7578802_equil.coor
Info: SUMMARY OF PARAMETERS:
Info: 4 BONDS
Info: 2 ANGLES
Info:   2 HARMONIC
Info:   0 COSINE-BASED
Info: 0 DIHEDRAL
Info: 0 IMPROPER
Info: 0 CROSSTERM
Info: 0 VDW
Info: 15 VDW_PAIRS
Info: 0 NBTHOLE_PAIRS
Info: To read alchdata from file: mobley_7578802.pdb
Info: To read alchflag data from column: 5
Info: STRUCTURE SUMMARY:
Info: 2915 ATOMS
Info: 2914 BONDS
Info: 6 ANGLES
Info: 0 DIHEDRALS
Info: 0 IMPROPERS
Info: 0 CROSSTERMS
Info: 2920 EXCLUSIONS
Info: 2911 RIGID BONDS
Info: ALCH: 0 ATOMS TO DISAPPEAR IN FINAL STATE
Info: ALCH: 5 ATOMS TO APPEAR IN FINAL STATE
Info: 5834 DEGREES OF FREEDOM
Info: 974 HYDROGEN GROUPS
Info: 3 ATOMS IN LARGEST HYDROGEN GROUP
Info: 974 MIGRATION GROUPS
Info: 3 ATOMS IN LARGEST MIGRATION GROUP
Info: TOTAL MASS = 17728.2 amu
Info: TOTAL CHARGE = 9.9998e-05 e
Info: MASS DENSITY = 0.97295 g/cm^3
Info: ATOM DENSITY = 0.0963394 atoms/A^3
Info: ADDED 0 IMPLICIT EXCLUSIONS
Info: NONBONDED TABLE R-SQUARED SPACING: 0.0625
Info: NONBONDED TABLE SIZE: 705 POINTS
Info: REMOVING COM VELOCITY -0.172064 -0.0756549 0.0629417
Info: Use 3D box decompostion in PME FFT.
Info: Updated CUDA force table with 4096 elements.
Info: Updated CUDA LJ table with 5 x 5 elements.
Info: Found 8 unique exclusion lists needing 8 bytes
TCL: Running for 1500000 steps
ETITLE: TS BOND ANGLE DIHED IMPRP ELECT VDW BOUNDARY MISC KINETIC TOTAL TEMP POTENTIAL TOTALAVG TEMPAVG PRESSURE GPRESSURE VOLUME PRESSAVG GPRESSAVG
ENERGY: 0 0.3307 2.1865 0.0000 0.0000 -10557.6368 1398.1950 0.0000 0.0000 1763.7690 -7393.1555 304.2746 -9156.9245 -7393.1555 304.2746 -338.4085 -246.9493 30257.5952 -338.4085 -246.9493
ENERGY: 300000 1.8870 0.2973 0.0000 0.0000 -10603.9468 1392.9038 0.0000 0.0000 1729.9067 -7478.9519 298.4329 -9208.8586 -7443.9967 299.6143 -288.9551 -203.8066 29708.7854 -332.0077 -241.2387
ENERGY: 600000 0.1148 2.2315 0.0000 0.0000 -10682.5549 1508.9519 0.0000 0.0000 1722.6090 -7448.6477 297.1739 -9171.2567 -7452.5875 297.8439 173.8529 293.9042 30756.5934 -328.6778 -248.3953
ENERGY: 900000 0.9257 1.1751 0.0000 0.0000 -10521.4815 1383.3790 0.0000 0.0000 1678.0912 -7457.9105 289.4940 -9136.0017 -7442.0302 297.8618 -347.4067 -295.6258 30168.1527 -270.5606 -191.9672
ENERGY: 1200000 0.5811 0.9981 0.0000 0.0000 -10479.9512 1369.2652 0.0000 0.0000 1762.4620 -7346.6448 304.0491 -9109.1068 -7435.9619 298.2932 -252.2853 -218.0972 29898.9467 -320.7644 -246.1023
ENERGY: 1500000 1.0610 0.8393 0.0000 0.0000 -10690.7069 1469.9588 0.0000 0.0000 1743.6649 -7475.1829 300.8063 -9218.8478 -7431.9847 299.1860 365.5651 443.3584 29759.5860 -236.7696 -165.5093
TCL: Running FEP window   2: Lambda1 0.05   Lambda2 0.1    [dLambda 0.05  ]
TCL: Setting parameter firsttimestep to 0
TCL: Setting parameter alchLambda to 0.05
Info: NONBONDED TABLE R-SQUARED SPACING: 0.0625
Info: NONBONDED TABLE SIZE: 705 POINTS
TCL: Setting parameter alchLambda2 to 0.1
Info: NONBONDED TABLE R-SQUARED SPACING: 0.0625
Info: NONBONDED TABLE SIZE: 705 POINTS
TCL: Running for 1500000 steps
ETITLE: TS BOND ANGLE DIHED IMPRP ELECT VDW BOUNDARY MISC KINETIC TOTAL TEMP POTENTIAL TOTALAVG TEMPAVG PRESSURE GPRESSURE VOLUME PRESSAVG GPRESSAVG
ENERGY: 0 1.0610 0.8393 0.0000 0.0000 -10690.7054 1478.3070 0.0000 0.0000 1742.8010 -7467.6971 300.6573 -9210.4981 -7467.6971 300.6573 371.2976 451.4273 29759.5860 371.2976 451.4273
ENERGY: 300000 0.9151 1.4308 0.0000 0.0000 -10755.3613 1500.7614 0.0000 0.0000 1766.9267 -7485.3273 304.8193 -9252.2540 -7445.5392 301.3999 593.0042 639.3216 29435.3528 544.1691 598.2541
ENERGY: 600000 0.0630 1.3268 0.0000 0.0000 -10571.8329 1455.8646 0.0000 0.0000 1740.4795 -7374.0990 300.2568 -9114.5785 -7414.7043 300.4369 367.4532 463.4912 30065.7741 386.5202 434.6615
ENERGY: 900000 0.8447 0.2906 0.0000 0.0000 -10693.7905 1428.7985 0.0000 0.0000 1759.6313 -7504.2255 303.5608 -9263.8567 -7419.4884 300.4974 -133.0446 -69.2783 29767.4412 272.7104 320.4277
ENERGY: 1200000 0.2137 1.9695 0.0000 0.0000 -10699.2256 1479.5975 0.0000 0.0000 1708.2834 -7509.1615 294.7025 -9217.4449 -7422.3814 299.8787 142.6682 243.8134 29815.1001 226.5328 271.5905
ENERGY: 1500000 0.6426 2.9133 0.0000 0.0000 -10684.8140 1547.0704 0.0000 0.0000 1700.3571 -7433.8306 293.3351 -9134.1877 -7428.6956 299.1103 931.9750 974.2360 29885.1164 184.2411 233.6276
TCL: Running FEP window   3: Lambda1 0.1    Lambda2 0.15000000000000002 [dLambda 0.05000000000000002]
TCL: Setting parameter firsttimestep to 0
TCL: Setting parameter alchLambda to 0.1
Info: NONBONDED TABLE R-SQUARED SPACING: 0.0625
Info: NONBONDED TABLE SIZE: 705 POINTS
TCL: Setting parameter alchLambda2 to 0.15000000000000002
Info: NONBONDED TABLE R-SQUARED SPACING: 0.0625
Info: NONBONDED TABLE SIZE: 705 POINTS
TCL: Running for 1500000 steps
ETITLE: TS BOND ANGLE DIHED IMPRP ELECT VDW BOUNDARY MISC KINETIC TOTAL TEMP POTENTIAL TOTALAVG TEMPAVG PRESSURE GPRESSURE VOLUME PRESSAVG GPRESSAVG
ENERGY: 0 0.6426 2.9133 0.0000 0.0000 -10684.8136 1548.4096 0.0000 0.0000 1699.4870 -7433.3611 293.1850 -9132.8481 -7433.3611 293.1850 911.4752 981.1148 29885.1164 911.4752 981.1148
ENERGY: 300000 1.5049 0.6347 0.0000 0.0000 -10513.0755 1420.8270 0.0000 0.0000 1716.2213 -7373.8876 296.0719 -9090.1089 -7394.3775 297.5194 59.4950 146.5416 30143.0165 242.1077 317.5112
ENERGY: 600000 0.2833 1.4688 0.0000 0.0000 -10727.1102 1537.6520 0.0000 0.0000 1722.6425 -7465.0636 297.1797 -9187.7061 -7391.0737 299.8665 749.9311 817.8087 29995.6483 166.6136 233.0841
ENERGY: 900000 1.7157 0.7671 0.0000 0.0000 -10681.1242 1555.6021 0.0000 0.0000 1738.6450 -7384.3942 299.9403 -9123.0392 -7401.5966 299.4182 1052.6963 1121.7563 30040.8789 244.3516 305.9514
ENERGY: 1200000 0.7324 0.5058 0.0000 0.0000 -10507.6544 1400.6867 0.0000 0.0000 1760.9607 -7344.7687 303.7901 -9105.7295 -7411.8943 298.6438 -230.6832 -216.2257 30396.4884 149.1682 201.0421
ENERGY: 1500000 0.2599 2.1522 0.0000 0.0000 -10611.4078 1436.9709 0.0000 0.0000 1725.4190 -7446.6058 297.6587 -9172.0248 -7413.4068 299.2059 76.0084 88.0751 29883.0160 108.0017 163.7701
TCL: Running FEP window   4: Lambda1 0.15000000000000002 Lambda2 0.2    [dLambda 0.04999999999999999]
TCL: Setting parameter firsttimestep to 0
TCL: Setting parameter alchLambda to 0.15000000000000002
Info: NONBONDED TABLE R-SQUARED SPACING: 0.0625
Info: NONBONDED TABLE SIZE: 705 POINTS
TCL: Setting parameter alchLambda2 to 0.2
Info: NONBONDED TABLE R-SQUARED SPACING: 0.0625
Info: NONBONDED TABLE SIZE: 705 POINTS
TCL: Running for 1500000 steps
ETITLE: TS BOND ANGLE DIHED IMPRP ELECT VDW BOUNDARY MISC KINETIC TOTAL TEMP POTENTIAL TOTALAVG TEMPAVG PRESSURE GPRESSURE VOLUME PRESSAVG GPRESSAVG
ENERGY: 0 0.2599 2.1522 0.0000 0.0000 -10611.4091 1436.6677 0.0000 0.0000 1724.5046 -7447.8248 297.5009 -9172.3294 -7447.8248 297.5009 1.0943 87.1571 29883.0160 1.0943 87.1571
ENERGY: 300000 1.1696 4.1803 0.0000 0.0000 -10513.0255 1362.1462 0.0000 0.0000 1710.2598 -7435.2696 295.0435 -9145.5294 -7471.4329 295.9480 -612.5362 -462.1005 30080.4655 -62.9650 47.1294
ENERGY: 600000 0.3783 0.7844 0.0000 0.0000 -10676.7012 1510.2963 0.0000 0.0000 1751.7758 -7413.4665 302.2056 -9165.2423 -7456.9973 299.3587 764.1523 799.1966 29797.7833 80.8640 150.4232
ENERGY: 900000 1.2457 3.1126 0.0000 0.0000 -10521.9442 1360.8194 0.0000 0.0000 1765.4780 -7391.2885 304.5694 -9156.7665 -7452.5360 300.1630 -686.7040 -549.7468 30357.2144 -60.4798 21.2783
ENERGY: 1200000 0.7515 1.7402 0.0000 0.0000 -10558.3187 1454.6083 0.0000 0.0000 1669.5688 -7431.6498 288.0237 -9101.2186 -7445.6396 299.0657 257.5099 309.0860 30008.6517 21.8318 95.8843
ENERGY: 1500000 0.0261 1.9586 0.0000 0.0000 -10480.6213 1287.1306 0.0000 0.0000 1748.4028 -7443.1033 301.6237 -9191.5061 -7447.6549 299.2000 -1162.1694 -1104.3338 30080.4240 -74.0750 -3.4555
TCL: Running FEP window   5: Lambda1 0.2    Lambda2 0.25   [dLambda 0.04999999999999999]
TCL: Setting parameter firsttimestep to 0
TCL: Setting parameter alchLambda to 0.2
Info: NONBONDED TABLE R-SQUARED SPACING: 0.0625
Info: NONBONDED TABLE SIZE: 705 POINTS
TCL: Setting parameter alchLambda2 to 0.25
Info: NONBONDED TABLE R-SQUARED SPACING: 0.0625
Info: NONBONDED TABLE SIZE: 705 POINTS
TCL: Running for 1500000 steps
ETITLE: TS BOND ANGLE DIHED IMPRP ELECT VDW BOUNDARY MISC KINETIC TOTAL TEMP POTENTIAL TOTALAVG TEMPAVG PRESSURE GPRESSURE VOLUME PRESSAVG GPRESSAVG
ENERGY: 0 0.0261 1.9586 0.0000 0.0000 -10480.6214 1287.5800 0.0000 0.0000 1747.5508 -7443.5059 301.4767 -9191.0567 -7443.5059 301.4767 -1183.5637 -1098.6083 30080.4240 -1183.5637 -1098.6083
ENERGY: 300000 1.0523 0.9246 0.0000 0.0000 -10517.4808 1383.0812 0.0000 0.0000 1753.1603 -7379.2624 302.4444 -9132.4227 -7371.5792 305.8536 18.4398 75.4430 29895.9706 -304.7660 -245.1367
ENERGY: 600000 1.0375 0.7622 0.0000 0.0000 -10508.1177 1399.7464 0.0000 0.0000 1716.2398 -7390.3318 296.0751 -9106.5717 -7396.6813 301.7235 -406.9325 -309.0242 30419.4929 -240.8838 -180.5017
ENERGY: 900000 0.1395 1.0615 0.0000 0.0000 -10551.2901 1426.8545 0.0000 0.0000 1727.9267 -7395.3079 298.0913 -9123.2346 -7390.9785 301.0164 47.3932 87.8823 30138.3280 -195.6045 -141.9417
ENERGY: 1200000 1.4598 1.1656 0.0000 0.0000 -10678.8691 1517.7091 0.0000 0.0000 1761.6715 -7396.8631 303.9127 -9158.5346 -7399.0219 301.1252 814.1799 843.5113 29666.5302 -67.7985 -19.6731
ENERGY: 1500000 0.6248 0.7559 0.0000 0.0000 -10635.8915 1441.3131 0.0000 0.0000 1716.9834 -7476.2142 296.2034 -9193.1977 -7406.9467 300.4396 -34.2193 6.3097 30154.9080 -70.3052 -27.2392
TCL: Running FEP window   6: Lambda1 0.25   Lambda2 0.3    [dLambda 0.04999999999999999]
TCL: Setting parameter firsttimestep to 0
TCL: Setting parameter alchLambda to 0.25
Info: NONBONDED TABLE R-SQUARED SPACING: 0.0625
Info: NONBONDED TABLE SIZE: 705 POINTS
TCL: Setting parameter alchLambda2 to 0.3
Info: NONBONDED TABLE R-SQUARED SPACING: 0.0625
Info: NONBONDED TABLE SIZE: 705 POINTS
TCL: Running for 1500000 steps
ETITLE: TS BOND ANGLE DIHED IMPRP ELECT VDW BOUNDARY MISC KINETIC TOTAL TEMP POTENTIAL TOTALAVG TEMPAVG PRESSURE GPRESSURE VOLUME PRESSAVG GPRESSAVG
ENERGY: 0 0.6248 0.7559 0.0000 0.0000 -10635.8929 1441.1649 0.0000 0.0000 1716.1558 -7477.1914 296.0606 -9193.3472 -7477.1914 296.0606 -87.2185 9.2654 30154.9080 -87.2185 9.2654
ENERGY: 300000 0.4597 0.8723 0.0000 0.0000 -10637.9367 1431.9071 0.0000 0.0000 1707.8865 -7496.8111 294.6341 -9204.6976 -7469.7557 296.3675 -158.0597 -106.6864 29984.0812 82.7873 130.0229
ENERGY: 600000 0.3435 4.4555 0.0000 0.0000 -10671.9870 1528.5606 0.0000 0.0000 1738.2753 -7400.3520 299.8766 -9138.6274 -7451.6888 298.0299 669.1426 700.3191 30263.9410 57.4456 105.7874
ENERGY: 900000 0.3750 2.1537 0.0000 0.0000 -10552.6631 1436.1321 0.0000 0.0000 1725.3642 -7388.6380 297.6492 -9114.0022 -7436.6907 298.0781 275.2633 329.8913 29861.8411 86.7920 128.6359
ENERGY: 1200000 0.4507 1.7255 0.0000 0.0000 -10525.4589 1427.4470 0.0000 0.0000 1747.8503 -7347.9854 301.5284 -9095.8357 -7426.9799 298.4538 11.5627 90.7566 30394.3479 112.8451 157.8473
ENERGY: 1500000 1.1219 1.2042 0.0000 0.0000 -10628.7195 1420.5148 0.0000 0.0000 1772.3617 -7433.5169 305.7569 -9205.8786 -7437.2922 298.9102 -50.8064 18.6366 29782.8908 49.6888 104.1591
TCL: Running FEP window   7: Lambda1 0.3    Lambda2 0.35   [dLambda 0.04999999999999999]
TCL: Setting parameter firsttimestep to 0
TCL: Setting parameter alchLambda to 0.3
Info: NONBONDED TABLE R-SQUARED SPACING: 0.0625
Info: NONBONDED TABLE SIZE: 705 POINTS
TCL: Setting parameter alchLambda2 to 0.35
Info: NONBONDED TABLE R-SQUARED SPACING: 0.0625
Info: NONBONDED TABLE SIZE: 705 POINTS
TCL: Running for 1500000 steps
ETITLE: TS BOND ANGLE DIHED IMPRP ELECT VDW BOUNDARY MISC KINETIC TOTAL TEMP POTENTIAL TOTALAVG TEMPAVG PRESSURE GPRESSURE VOLUME PRESSAVG GPRESSAVG
ENERGY: 0 1.1219 1.2042 0.0000 0.0000 -10628.7190 1420.5851 0.0000 0.0000 1771.5057 -7434.3020 305.6093 -9205.8078 -7434.3020 305.6093 -64.9615 20.8159 29782.8908 -64.9615 20.8159
ENERGY: 300000 0.7309 0.8758 0.0000 0.0000 -10618.3998 1415.7250 0.0000 0.0000 1725.1876 -7475.8805 297.6187 -9201.0681 -7432.0376 302.0133 -54.7305 24.5622 29685.7955 -152.9349 -68.3617
ENERGY: 600000 0.6768 1.3158 0.0000 0.0000 -10406.6423 1313.0077 0.0000 0.0000 1782.7175 -7308.9246 307.5435 -9091.6421 -7398.3772 303.9006 -1076.6775 -990.2773 30773.6102 -290.0422 -208.4400
ENERGY: 900000 0.6298 0.6568 0.0000 0.0000 -10548.3950 1361.3799 0.0000 0.0000 1750.5428 -7435.1858 301.9929 -9185.7286 -7404.8658 302.9611 -362.8433 -377.4148 30033.2095 -135.7630 -66.5458
ENERGY: 1200000 0.9026 0.4193 0.0000 0.0000 -10613.3051 1429.9910 0.0000 0.0000 1757.4331 -7424.5590 303.1816 -9181.9922 -7401.1729 303.8471 -150.8335 -107.8845 30343.6659 -156.4219 -88.6534
ENERGY: 1500000 0.5758 1.3696 0.0000 0.0000 -10500.7965 1363.4673 0.0000 0.0000 1792.4134 -7342.9703 309.2161 -9135.3837 -7404.4333 303.3733 -323.7985 -250.7760 30036.9491 -162.7431 -93.7302
TCL: Running FEP window   8: Lambda1 0.35   Lambda2 0.39999999999999997 [dLambda 0.04999999999999999]
TCL: Setting parameter firsttimestep to 0
TCL: Setting parameter alchLambda to 0.35
Info: NONBONDED TABLE R-SQUARED SPACING: 0.0625
Info: NONBONDED TABLE SIZE: 705 POINTS
TCL: Setting parameter alchLambda2 to 0.39999999999999997
Info: NONBONDED TABLE R-SQUARED SPACING: 0.0625
Info: NONBONDED TABLE SIZE: 705 POINTS
TCL: Running for 1500000 steps
ETITLE: TS BOND ANGLE DIHED IMPRP ELECT VDW BOUNDARY MISC KINETIC TOTAL TEMP POTENTIAL TOTALAVG TEMPAVG PRESSURE GPRESSURE VOLUME PRESSAVG GPRESSAVG
ENERGY: 0 0.5758 1.3696 0.0000 0.0000 -10500.7974 1363.3838 0.0000 0.0000 1791.5407 -7343.9274 309.0656 -9135.4681 -7343.9274 309.0656 -332.6551 -244.3269 30036.9491 -332.6551 -244.3269
ENERGY: 300000 0.7755 0.7025 0.0000 0.0000 -10597.1424 1371.1257 0.0000 0.0000 1775.4309 -7449.1078 306.2864 -9224.5387 -7424.1769 302.5280 -553.3132 -534.9586 30163.2049 -69.5577 -2.4035
ENERGY: 600000 0.7243 1.4821 0.0000 0.0000 -10592.1345 1431.8263 0.0000 0.0000 1707.0369 -7451.0647 294.4875 -9158.1016 -7431.3698 299.9169 -47.0820 48.9087 30196.4342 26.1039 85.9600
ENERGY: 900000 1.2104 1.9377 0.0000 0.0000 -10484.0983 1356.0444 0.0000 0.0000 1707.1425 -7417.7633 294.5057 -9124.9059 -7417.2480 299.8854 -843.3670 -766.5909 30543.1978 -89.0294 -25.2379
ENERGY: 1200000 0.1517 0.7553 0.0000 0.0000 -10682.3887 1499.1511 0.0000 0.0000 1750.1690 -7432.1615 301.9284 -9182.3305 -7419.7883 298.7945 530.2002 512.0660 30354.2404 -152.2176 -94.1361
ENERGY: 1500000 0.4735 0.6798 0.0000 0.0000 -10582.7404 1405.0489 0.0000 0.0000 1721.5621 -7454.9762 296.9933 -9176.5383 -7427.8167 298.7143 152.4350 155.4139 29789.3247 -61.6355 -7.2662
TCL: Running FEP window   9: Lambda1 0.39999999999999997 Lambda2 0.44999999999999996 [dLambda 0.04999999999999999]
TCL: Setting parameter firsttimestep to 0
TCL: Setting parameter alchLambda to 0.39999999999999997
Info: NONBONDED TABLE R-SQUARED SPACING: 0.0625
Info: NONBONDED TABLE SIZE: 705 POINTS
TCL: Setting parameter alchLambda2 to 0.44999999999999996
Info: NONBONDED TABLE R-SQUARED SPACING: 0.0625
Info: NONBONDED TABLE SIZE: 705 POINTS
TCL: Running for 1500000 steps
ETITLE: TS BOND ANGLE DIHED IMPRP ELECT VDW BOUNDARY MISC KINETIC TOTAL TEMP POTENTIAL TOTALAVG TEMPAVG PRESSURE GPRESSURE VOLUME PRESSAVG GPRESSAVG
ENERGY: 0 0.4735 0.6798 0.0000 0.0000 -10582.7388 1405.6287 0.0000 0.0000 1720.7165 -7455.2403 296.8474 -9175.9568 -7455.2403 296.8474 77.4807 168.6633 29789.3247 77.4807 168.6633
ENERGY: 300000 0.1759 0.6002 0.0000 0.0000 -10519.6391 1388.8207 0.0000 0.0000 1769.0825 -7360.9598 305.1912 -9130.0423 -7416.6369 300.4919 -388.7664 -308.5618 30444.7823 96.9583 175.2644
ENERGY: 600000 1.9481 2.4624 0.0000 0.0000 -10643.4755 1451.7991 0.0000 0.0000 1695.3191 -7491.9468 292.4660 -9187.2660 -7428.9239 297.9346 264.6134 330.6033 29882.9596 400.8388 459.8978
ENERGY: 900000 2.0631 2.1959 0.0000 0.0000 -10655.5459 1450.7001 0.0000 0.0000 1789.1776 -7411.4091 308.6579 -9200.5867 -7435.6111 298.4309 311.9845 316.2267 29789.9466 218.9652 289.2630
ENERGY: 1200000 0.7174 1.2172 0.0000 0.0000 -10567.2257 1448.7531 0.0000 0.0000 1710.7508 -7405.7871 295.1282 -9116.5380 -7431.9312 298.1728 62.4642 157.2892 30458.8356 195.4693 266.4891
ENERGY: 1500000 1.0459 1.0882 0.0000 0.0000 -10633.7959 1433.5645 0.0000 0.0000 1749.5787 -7448.5187 301.8265 -9198.0974 -7434.0044 298.5226 226.2061 256.3693 29687.9876 194.4867 264.3053
TCL: Running FEP window  10: Lambda1 0.44999999999999996 Lambda2 0.49999999999999994 [dLambda 0.04999999999999999]
TCL: Setting parameter firsttimestep to 0
TCL: Setting parameter alchLambda to 0.44999999999999996
Info: NONBONDED TABLE R-SQUARED SPACING: 0.0625
Info: NONBONDED TABLE SIZE: 705 POINTS
TCL: Setting parameter alchLambda2 to 0.49999999999999994
Info: NONBONDED TABLE R-SQUARED SPACING: 0.0625
Info: NONBONDED TABLE SIZE: 705 POINTS
TCL: Running for 1500000 steps
ETITLE: TS BOND ANGLE DIHED IMPRP ELECT VDW BOUNDARY MISC KINETIC TOTAL TEMP POTENTIAL TOTALAVG TEMPAVG PRESSURE GPRESSURE VOLUME PRESSAVG GPRESSAVG
ENERGY: 0 1.0459 1.0882 0.0000 0.0000 -10633.7963 1434.2534 0.0000 0.0000 1748.7191 -7448.6897 301.6783 -9197.4088 -7448.6897 301.6783 190.4014 268.4406 29687.9876 190.4014 268.4406
ENERGY: 300000 0.2140 1.4148 0.0000 0.0000 -10488.7227 1287.2207 0.0000 0.0000 1791.6169 -7408.2563 309.0787 -9199.8732 -7444.7383 303.1654 -1149.8956 -1098.5796 30202.5503 -267.6675 -187.3479
ENERGY: 600000 0.1173 1.4217 0.0000 0.0000 -10613.4069 1425.5956 0.0000 0.0000 1734.6979 -7451.5745 299.2594 -9186.2723 -7429.9228 301.8486 -326.8778 -259.9886 30550.9728 -388.3026 -311.8155
ENERGY: 900000 0.5455 1.6256 0.0000 0.0000 -10536.4708 1438.0133 0.0000 0.0000 1754.2656 -7342.0209 302.6351 -9096.2865 -7417.2979 301.5253 397.8137 443.4201 29902.0120 -210.2167 -131.0581
ENERGY: 1200000 1.6263 2.1299 0.0000 0.0000 -10579.0192 1437.7217 0.0000 0.0000 1727.8760 -7409.6654 298.0825 -9137.5413 -7426.9747 300.4259 58.9723 202.8905 30181.8465 -60.2267 22.6896
ENERGY: 1500000 0.2312 2.6882 0.0000 0.0000 -10465.4200 1393.2224 0.0000 0.0000 1723.0419 -7346.2363 297.2486 -9069.2782 -7425.0372 300.3172 57.2174 93.6589 30021.9689 -12.9402 67.4502
TCL: Running FEP window  11: Lambda1 0.49999999999999994 Lambda2 0.5499999999999999 [dLambda 0.04999999999999999]
TCL: Setting parameter firsttimestep to 0
TCL: Setting parameter alchLambda to 0.49999999999999994
Info: NONBONDED TABLE R-SQUARED SPACING: 0.0625
Info: NONBONDED TABLE SIZE: 705 POINTS
TCL: Setting parameter alchLambda2 to 0.5499999999999999
Info: NONBONDED TABLE R-SQUARED SPACING: 0.0625
Info: NONBONDED TABLE SIZE: 705 POINTS
TCL: Running for 1500000 steps
ETITLE: TS BOND ANGLE DIHED IMPRP ELECT VDW BOUNDARY MISC KINETIC TOTAL TEMP POTENTIAL TOTALAVG TEMPAVG PRESSURE GPRESSURE VOLUME PRESSAVG GPRESSAVG
ENERGY: 0 0.2312 2.6882 0.0000 0.0000 -10465.4193 1393.1812 0.0000 0.0000 1722.1526 -7347.1661 297.0952 -9069.3187 -7347.1661 297.0952 19.1159 99.7141 30021.9689 19.1159 99.7141
ENERGY: 300000 0.8751 1.6311 0.0000 0.0000 -10643.9404 1452.0124 0.0000 0.0000 1754.7147 -7434.7071 302.7126 -9189.4218 -7418.5720 297.2465 44.6932 42.0954 30208.5017 210.2999 280.4919
ENERGY: 600000 0.6584 1.2122 0.0000 0.0000 -10641.9641 1428.7368 0.0000 0.0000 1755.9025 -7455.4543 302.9175 -9211.3568 -7432.7240 298.0805 -29.5910 47.4017 29748.5550 130.3084 196.2336
ENERGY: 900000 1.5471 0.3744 0.0000 0.0000 -10580.7968 1445.1701 0.0000 0.0000 1746.5830 -7387.1223 301.3098 -9133.7053 -7427.3768 299.5117 435.9547 536.0017 29622.4182 148.2576 217.0528
ENERGY: 1200000 0.7378 0.4338 0.0000 0.0000 -10519.7394 1369.3159 0.0000 0.0000 1716.0258 -7433.2262 296.0382 -9149.2519 -7432.9617 299.1451 -381.6214 -323.4720 30010.0847 124.4651 192.3785
ENERGY: 1500000 0.0459 1.7980 0.0000 0.0000 -10605.1846 1481.7274 0.0000 0.0000 1734.2693 -7387.3439 299.1855 -9121.6132 -7436.0380 299.2025 448.3543 516.7111 30051.6723 149.4401 219.1795
TCL: Running FEP window  12: Lambda1 0.5499999999999999 Lambda2 0.6    [dLambda 0.050000000000000044]
TCL: Setting parameter firsttimestep to 0
TCL: Setting parameter alchLambda to 0.5499999999999999
Info: NONBONDED TABLE R-SQUARED SPACING: 0.0625
Info: NONBONDED TABLE SIZE: 705 POINTS
TCL: Setting parameter alchLambda2 to 0.6
Info: NONBONDED TABLE R-SQUARED SPACING: 0.0625
Info: NONBONDED TABLE SIZE: 705 POINTS
TCL: Running for 1500000 steps
ETITLE: TS BOND ANGLE DIHED IMPRP ELECT VDW BOUNDARY MISC KINETIC TOTAL TEMP POTENTIAL TOTALAVG TEMPAVG PRESSURE GPRESSURE VOLUME PRESSAVG GPRESSAVG
ENERGY: 0 0.0459 1.7980 0.0000 0.0000 -10605.2333 1481.5720 0.0000 0.0000 1733.4068 -7388.4106 299.0367 -9121.8174 -7388.4106 299.0367 463.4537 520.8126 30051.6723 463.4537 520.8126
ENERGY: 300000 0.5234 0.6363 0.0000 0.0000 -10809.1888 1540.0670 0.0000 0.0000 1738.9766 -7528.9856 299.9975 -9267.9622 -7450.4347 296.5881 354.6881 456.1610 30186.0905 -4.4196 88.7378
ENERGY: 600000 0.8169 1.1237 0.0000 0.0000 -10677.6815 1465.3398 0.0000 0.0000 1721.6473 -7488.7538 297.0080 -9210.4011 -7456.0737 297.7492 357.1326 457.7902 29570.3323 -146.1378 -50.8130
ENERGY: 900000 1.2573 1.0234 0.0000 0.0000 -10646.7902 1491.2404 0.0000 0.0000 1724.3329 -7428.9363 297.4713 -9153.2692 -7437.1379 299.4516 452.9760 551.6904 30230.4469 -104.8360 -17.9291
ENERGY: 1200000 0.3975 2.1373 0.0000 0.0000 -10630.0440 1484.5038 0.0000 0.0000 1753.1515 -7389.8539 302.4429 -9143.0053 -7431.9061 299.9688 411.0277 425.0561 30059.1751 -35.5645 35.1024
ENERGY: 1500000 0.0812 1.9999 0.0000 0.0000 -10778.9145 1521.9395 0.0000 0.0000 1713.5044 -7541.3894 295.6032 -9254.8938 -7443.4233 299.6350 621.1812 692.1074 29563.8309 -30.8236 38.8718
TCL: Running FEP window  13: Lambda1 0.6    Lambda2 0.65   [dLambda 0.050000000000000044]
TCL: Setting parameter firsttimestep to 0
TCL: Setting parameter alchLambda to 0.6
Info: NONBONDED TABLE R-SQUARED SPACING: 0.0625
Info: NONBONDED TABLE SIZE: 705 POINTS
TCL: Setting parameter alchLambda2 to 0.65
Info: NONBONDED TABLE R-SQUARED SPACING: 0.0625
Info: NONBONDED TABLE SIZE: 705 POINTS
TCL: Running for 1500000 steps
ETITLE: TS BOND ANGLE DIHED IMPRP ELECT VDW BOUNDARY MISC KINETIC TOTAL TEMP POTENTIAL TOTALAVG TEMPAVG PRESSURE GPRESSURE VOLUME PRESSAVG GPRESSAVG
ENERGY: 0 0.0812 1.9999 0.0000 0.0000 -10778.8801 1522.3529 0.0000 0.0000 1712.6239 -7541.8222 295.4513 -9254.4461 -7541.8222 295.4513 625.2942 704.4897 29563.8309 625.2942 704.4897
ENERGY: 300000 0.3574 2.2714 0.0000 0.0000 -10555.3973 1415.2191 0.0000 0.0000 1705.3717 -7432.1779 294.2002 -9137.5496 -7454.9566 296.0532 -164.7808 -155.4481 30451.2350 -169.2275 -134.1217
ENERGY: 600000 0.1289 1.3114 0.0000 0.0000 -10663.8880 1456.9956 0.0000 0.0000 1780.9835 -7424.4685 307.2443 -9205.4520 -7451.2146 297.7738 385.3060 434.3709 29784.2863 -38.2254 1.6886
ENERGY: 900000 0.0497 2.4522 0.0000 0.0000 -10563.7384 1362.5556 0.0000 0.0000 1764.2865 -7434.3944 304.3638 -9198.6809 -7448.7296 298.3933 -643.8598 -563.9437 30278.0905 -79.4114 -25.7896
ENERGY: 1200000 1.0430 2.1412 0.0000 0.0000 -10583.1271 1397.2055 0.0000 0.0000 1755.5347 -7427.2025 302.8541 -9182.7373 -7443.3278 298.6112 -331.9436 -253.7999 30176.9752 -36.5994 21.4047
ENERGY: 1500000 0.5961 1.5314 0.0000 0.0000 -10679.0532 1474.3283 0.0000 0.0000 1739.5000 -7463.0975 300.0878 -9202.5974 -7436.3644 299.3613 305.7017 382.2461 30055.4654 37.7775 94.6462
TCL: Running FEP window  14: Lambda1 0.65   Lambda2 0.7000000000000001 [dLambda 0.050000000000000044]
TCL: Setting parameter firsttimestep to 0
TCL: Setting parameter alchLambda to 0.65
Info: NONBONDED TABLE R-SQUARED SPACING: 0.0625
Info: NONBONDED TABLE SIZE: 705 POINTS
TCL: Setting parameter alchLambda2 to 0.7000000000000001
Info: NONBONDED TABLE R-SQUARED SPACING: 0.0625
Info: NONBONDED TABLE SIZE: 705 POINTS
TCL: Running for 1500000 steps
ETITLE: TS BOND ANGLE DIHED IMPRP ELECT VDW BOUNDARY MISC KINETIC TOTAL TEMP POTENTIAL TOTALAVG TEMPAVG PRESSURE GPRESSURE VOLUME PRESSAVG GPRESSAVG
ENERGY: 0 0.5961 1.5314 0.0000 0.0000 -10679.1245 1474.1256 0.0000 0.0000 1738.6137 -7464.2577 299.9349 -9202.8714 -7464.2577 299.9349 300.4622 385.4086 30055.4654 300.4622 385.4086
ENERGY: 300000 1.9859 0.7917 0.0000 0.0000 -10605.0121 1381.7648 0.0000 0.0000 1737.3184 -7483.1514 299.7115 -9220.4698 -7446.9807 300.4973 -483.7106 -301.7010 29810.4059 -430.0450 -339.6340
ENERGY: 600000 1.2073 1.3603 0.0000 0.0000 -10691.7148 1423.0129 0.0000 0.0000 1687.2371 -7578.8972 291.0718 -9266.1343 -7469.0485 298.4226 -300.0891 -264.1857 30129.3873 -363.5384 -281.1229
ENERGY: 900000 0.3112 2.0612 0.0000 0.0000 -10541.2955 1430.5163 0.0000 0.0000 1698.2332 -7410.1737 292.9687 -9108.4069 -7455.4313 297.4743 302.0417 345.0222 29671.5283 -248.0377 -182.7170
ENERGY: 1200000 0.0370 3.5195 0.0000 0.0000 -10707.4319 1501.2755 0.0000 0.0000 1732.4447 -7470.1552 298.8707 -9202.5999 -7455.8272 297.9291 936.8728 929.2991 29223.6865 -54.7181 6.1347
ENERGY: 1500000 0.9159 2.1589 0.0000 0.0000 -10536.5642 1378.8703 0.0000 0.0000 1687.0398 -7467.5792 291.0377 -9154.6190 -7453.6706 298.3508 -542.6358 -484.9131 30283.5512 -65.5105 -6.6458
TCL: Running FEP window  15: Lambda1 0.7000000000000001 Lambda2 0.7500000000000001 [dLambda 0.050000000000000044]
TCL: Setting parameter firsttimestep to 0
TCL: Setting parameter alchLambda to 0.7000000000000001
Info: NONBONDED TABLE R-SQUARED SPACING: 0.0625
Info: NONBONDED TABLE SIZE: 705 POINTS
TCL: Setting parameter alchLambda2 to 0.7500000000000001
Info: NONBONDED TABLE R-SQUARED SPACING: 0.0625
Info: NONBONDED TABLE SIZE: 705 POINTS
TCL: Running for 1500000 steps
ETITLE: TS BOND ANGLE DIHED IMPRP ELECT VDW BOUNDARY MISC KINETIC TOTAL TEMP POTENTIAL TOTALAVG TEMPAVG PRESSURE GPRESSURE VOLUME PRESSAVG GPRESSAVG
ENERGY: 0 0.9159 2.1589 0.0000 0.0000 -10536.8225 1378.7806 0.0000 0.0000 1686.1572 -7468.8099 290.8855 -9154.9671 -7468.8099 290.8855 -563.6433 -479.7531 30283.5512 -563.6433 -479.7531
ENERGY: 300000 0.3845 1.2765 0.0000 0.0000 -10544.3308 1297.9198 0.0000 0.0000 1791.3950 -7453.3550 309.0404 -9244.7500 -7423.3063 297.8975 -1135.9004 -1053.2319 29884.1826 -239.9483 -171.7759
ENERGY: 600000 0.1781 0.8900 0.0000 0.0000 -10347.4803 1263.6404 0.0000 0.0000 1718.0758 -7364.6960 296.3919 -9082.7717 -7415.0992 298.6455 -912.7315 -827.6108 30075.5819 -447.0280 -379.0778
ENERGY: 900000 1.8009 1.5429 0.0000 0.0000 -10782.2382 1487.4818 0.0000 0.0000 1711.0195 -7580.3931 295.1746 -9291.4126 -7433.6729 297.6297 375.1790 435.0151 29639.9835 -302.3048 -250.6081
ENERGY: 1200000 0.1448 1.9802 0.0000 0.0000 -10485.3667 1241.1468 0.0000 0.0000 1755.2396 -7486.8553 302.8031 -9242.0949 -7425.0718 299.1975 -1685.6304 -1638.9606 30482.5737 -226.6592 -173.9311
ENERGY: 1500000 0.5564 1.8849 0.0000 0.0000 -10503.0011 1382.5472 0.0000 0.0000 1720.5945 -7397.4180 296.8264 -9118.0125 -7418.3556 299.4080 -529.8756 -434.4212 30679.8273 -174.3589 -119.6297
TCL: Running FEP window  16: Lambda1 0.7500000000000001 Lambda2 0.8000000000000002 [dLambda 0.050000000000000044]
TCL: Setting parameter firsttimestep to 0
TCL: Setting parameter alchLambda to 0.7500000000000001
Info: NONBONDED TABLE R-SQUARED SPACING: 0.0625
Info: NONBONDED TABLE SIZE: 705 POINTS
TCL: Setting parameter alchLambda2 to 0.8000000000000002
Info: NONBONDED TABLE R-SQUARED SPACING: 0.0625
Info: NONBONDED TABLE SIZE: 705 POINTS
TCL: Running for 1500000 steps
ETITLE: TS BOND ANGLE DIHED IMPRP ELECT VDW BOUNDARY MISC KINETIC TOTAL TEMP POTENTIAL TOTALAVG TEMPAVG PRESSURE GPRESSURE VOLUME PRESSAVG GPRESSAVG
ENERGY: 0 0.5564 1.8849 0.0000 0.0000 -10503.2499 1382.2172 0.0000 0.0000 1719.7243 -7398.8669 296.6763 -9118.5913 -7398.8669 296.6763 -494.7205 -431.3652 30679.8273 -494.7205 -431.3652
ENERGY: 300000 1.3974 1.5049 0.0000 0.0000 -10519.3724 1379.3469 0.0000 0.0000 1731.6790 -7405.4444 298.7386 -9137.1233 -7392.2244 303.5269 -242.4483 -146.7636 30329.0185 -100.0142 -46.3030
ENERGY: 600000 0.6871 0.5644 0.0000 0.0000 -10643.7215 1422.6810 0.0000 0.0000 1715.5731 -7504.2160 295.9601 -9219.7890 -7410.4221 301.9207 -185.7998 -164.9930 29860.6152 117.6792 166.4526
ENERGY: 900000 0.8542 0.8058 0.0000 0.0000 -10583.3945 1403.9637 0.0000 0.0000 1698.0154 -7479.7554 292.9312 -9177.7709 -7427.6138 300.4510 88.9507 133.3345 29678.1368 129.7823 178.2652
ENERGY: 1200000 0.7962 2.4534 0.0000 0.0000 -10574.0002 1435.6739 0.0000 0.0000 1733.8336 -7401.2430 299.1103 -9135.0766 -7429.7319 299.8502 69.7331 155.0048 30203.1303 66.8491 117.3838
ENERGY: 1500000 0.5368 1.0497 0.0000 0.0000 -10623.6770 1446.3093 0.0000 0.0000 1731.9348 -7443.8464 298.7827 -9175.7812 -7416.3590 299.7933 -112.0853 -81.0892 30723.0819 14.9425 68.3049
TCL: Running FEP window  17: Lambda1 0.8000000000000002 Lambda2 0.8500000000000002 [dLambda 0.050000000000000044]
TCL: Setting parameter firsttimestep to 0
TCL: Setting parameter alchLambda to 0.8000000000000002
Info: NONBONDED TABLE R-SQUARED SPACING: 0.0625
Info: NONBONDED TABLE SIZE: 705 POINTS
TCL: Setting parameter alchLambda2 to 0.8500000000000002
Info: NONBONDED TABLE R-SQUARED SPACING: 0.0625
Info: NONBONDED TABLE SIZE: 705 POINTS
TCL: Running for 1500000 steps
ETITLE: TS BOND ANGLE DIHED IMPRP ELECT VDW BOUNDARY MISC KINETIC TOTAL TEMP POTENTIAL TOTALAVG TEMPAVG PRESSURE GPRESSURE VOLUME PRESSAVG GPRESSAVG
ENERGY: 0 0.5368 1.0497 0.0000 0.0000 -10623.6850 1446.3655 0.0000 0.0000 1731.1059 -7444.6272 298.6397 -9175.7331 -7444.6272 298.6397 -162.1929 -73.8283 30723.0819 -162.1929 -73.8283
ENERGY: 300000 0.5961 1.3769 0.0000 0.0000 -10532.4122 1416.2613 0.0000 0.0000 1759.3084 -7354.8695 303.5051 -9114.1779 -7425.1305 297.9699 199.7377 301.2717 29855.4236 88.5688 149.9148
ENERGY: 600000 1.1864 1.2240 0.0000 0.0000 -10713.5925 1519.1121 0.0000 0.0000 1755.8640 -7436.2060 302.9109 -9192.0700 -7424.0907 298.9329 792.0214 813.4490 29986.7429 -80.5369 -17.6327
ENERGY: 900000 1.0801 3.3961 0.0000 0.0000 -10559.6738 1351.6820 0.0000 0.0000 1725.8486 -7477.6670 297.7328 -9203.5156 -7427.3497 298.7538 -762.9983 -770.8996 30347.7144 -201.0608 -140.3024
ENERGY: 1200000 1.5661 1.2564 0.0000 0.0000 -10638.1733 1433.6711 0.0000 0.0000 1745.7859 -7455.8938 301.1722 -9201.6797 -7431.9415 299.7406 192.0407 329.3994 29416.8093 -67.0684 7.5658
ENERGY: 1500000 0.3766 2.1370 0.0000 0.0000 -10596.8128 1427.1215 0.0000 0.0000 1724.4676 -7442.7101 297.4945 -9167.1777 -7425.3214 299.3976 46.5691 117.8437 30116.5157 -107.9245 -36.3088
TCL: Running FEP window  18: Lambda1 0.8500000000000002 Lambda2 0.9000000000000002 [dLambda 0.050000000000000044]
TCL: Setting parameter firsttimestep to 0
TCL: Setting parameter alchLambda to 0.8500000000000002
Info: NONBONDED TABLE R-SQUARED SPACING: 0.0625
Info: NONBONDED TABLE SIZE: 705 POINTS
TCL: Setting parameter alchLambda2 to 0.9000000000000002
Info: NONBONDED TABLE R-SQUARED SPACING: 0.0625
Info: NONBONDED TABLE SIZE: 705 POINTS
TCL: Running for 1500000 steps
ETITLE: TS BOND ANGLE DIHED IMPRP ELECT VDW BOUNDARY MISC KINETIC TOTAL TEMP POTENTIAL TOTALAVG TEMPAVG PRESSURE GPRESSURE VOLUME PRESSAVG GPRESSAVG
ENERGY: 0 0.3766 2.1370 0.0000 0.0000 -10596.8980 1426.6996 0.0000 0.0000 1723.6347 -7444.0501 297.3508 -9167.6848 -7444.0501 297.3508 34.6424 118.5217 30116.5157 34.6424 118.5217
ENERGY: 300000 1.0569 1.1733 0.0000 0.0000 -10535.5250 1406.9173 0.0000 0.0000 1739.2213 -7387.1562 300.0398 -9126.3775 -7407.5961 300.1703 -76.0587 -95.3654 30230.6292 113.0286 143.4941
ENERGY: 600000 0.7773 1.6945 0.0000 0.0000 -10515.9482 1413.6189 0.0000 0.0000 1768.2166 -7331.6410 305.0418 -9099.8576 -7405.1101 303.3150 0.9093 94.8841 30450.5502 65.0346 113.5631
ENERGY: 900000 0.1941 1.2286 0.0000 0.0000 -10614.6047 1396.2049 0.0000 0.0000 1694.7253 -7522.2518 292.3636 -9216.9771 -7412.8214 301.8231 -247.4246 -132.6097 29779.5027 -75.1624 -10.9436
ENERGY: 1200000 1.6080 1.0280 0.0000 0.0000 -10479.4269 1374.8677 0.0000 0.0000 1771.0683 -7330.8549 305.5338 -9101.9232 -7416.0774 301.3306 -321.8445 -232.0355 30562.4508 -34.8373 39.8787
ENERGY: 1500000 1.1373 1.7745 0.0000 0.0000 -10547.2338 1341.3019 0.0000 0.0000 1725.3793 -7477.6409 297.6518 -9203.0202 -7420.7816 300.7856 -885.0992 -821.0165 30165.8308 -47.4848 26.1671
TCL: Running FEP window  19: Lambda1 0.9000000000000002 Lambda2 0.9500000000000003 [dLambda 0.050000000000000044]
TCL: Setting parameter firsttimestep to 0
TCL: Setting parameter alchLambda to 0.9000000000000002
Info: NONBONDED TABLE R-SQUARED SPACING: 0.0625
Info: NONBONDED TABLE SIZE: 705 POINTS
TCL: Setting parameter alchLambda2 to 0.9500000000000003
Info: NONBONDED TABLE R-SQUARED SPACING: 0.0625
Info: NONBONDED TABLE SIZE: 705 POINTS
TCL: Running for 1500000 steps
ETITLE: TS BOND ANGLE DIHED IMPRP ELECT VDW BOUNDARY MISC KINETIC TOTAL TEMP POTENTIAL TOTALAVG TEMPAVG PRESSURE GPRESSURE VOLUME PRESSAVG GPRESSAVG
ENERGY: 0 1.1373 1.7745 0.0000 0.0000 -10547.2909 1341.2413 0.0000 0.0000 1724.5151 -7478.6228 297.5027 -9203.1379 -7478.6228 297.5027 -895.4368 -812.2234 30165.8308 -895.4368 -812.2234
ENERGY: 300000 1.0559 2.3652 0.0000 0.0000 -10555.2692 1342.4596 0.0000 0.0000 1735.0135 -7474.3750 299.3139 -9209.3885 -7438.2293 300.2790 -855.4496 -765.9083 30141.1358 -287.0121 -212.0267
ENERGY: 600000 1.6446 1.9060 0.0000 0.0000 -10710.3978 1487.4894 0.0000 0.0000 1730.6760 -7488.6817 298.5656 -9219.3577 -7425.3646 300.9776 310.1511 449.5595 30085.6807 -79.2852 -5.8709
ENERGY: 900000 2.1317 1.1864 0.0000 0.0000 -10629.9061 1432.1747 0.0000 0.0000 1732.7116 -7461.7017 298.9167 -9194.4133 -7448.6988 299.7446 201.5396 295.3752 29914.1655 -1.0639 78.6620
ENERGY: 1200000 2.2691 0.8381 0.0000 0.0000 -10530.9184 1374.4898 0.0000 0.0000 1707.7147 -7445.6066 294.6044 -9153.3214 -7453.6950 298.5866 -480.6021 -398.8948 30450.3413 -94.3041 -17.7921
ENERGY: 1500000 1.2097 1.3013 0.0000 0.0000 -10613.5498 1420.2099 0.0000 0.0000 1795.5942 -7395.2347 309.7649 -9190.8289 -7456.3956 299.1144 -84.2501 -44.3416 30238.2351 -122.2012 -54.1491
TCL: Running FEP window  20: Lambda1 0.9500000000000003 Lambda2 1.0    [dLambda 0.04999999999999971]
TCL: Setting parameter firsttimestep to 0
TCL: Setting parameter alchLambda to 0.9500000000000003
Info: NONBONDED TABLE R-SQUARED SPACING: 0.0625
Info: NONBONDED TABLE SIZE: 705 POINTS
TCL: Setting parameter alchLambda2 to 1.0
Info: NONBONDED TABLE R-SQUARED SPACING: 0.0625
Info: NONBONDED TABLE SIZE: 705 POINTS
TCL: Running for 1500000 steps
ETITLE: TS BOND ANGLE DIHED IMPRP ELECT VDW BOUNDARY MISC KINETIC TOTAL TEMP POTENTIAL TOTALAVG TEMPAVG PRESSURE GPRESSURE VOLUME PRESSAVG GPRESSAVG
ENERGY: 0 1.2097 1.3013 0.0000 0.0000 -10613.6680 1419.7203 0.0000 0.0000 1794.7007 -7396.7360 309.6107 -9191.4367 -7396.7360 309.6107 -119.9683 -41.6291 30238.2351 -119.9683 -41.6291
ENERGY: 300000 0.2137 1.9969 0.0000 0.0000 -10443.2046 1358.1456 0.0000 0.0000 1722.5551 -7360.2932 297.1646 -9082.8483 -7395.6368 302.4630 -276.7384 -220.9639 30228.1220 48.8932 84.8059
ENERGY: 600000 1.0307 0.5000 0.0000 0.0000 -10519.3928 1364.1928 0.0000 0.0000 1699.1654 -7454.5039 293.1296 -9153.6693 -7431.2322 298.3829 -470.9236 -362.6259 30202.6003 -64.0874 -4.2573
ENERGY: 900000 0.3805 0.7714 0.0000 0.0000 -10493.6058 1351.9110 0.0000 0.0000 1715.2151 -7425.3278 295.8984 -9140.5429 -7425.4403 298.7508 -506.7819 -439.6158 30242.6754 -101.6962 -43.7528
ENERGY: 1200000 0.5362 1.5239 0.0000 0.0000 -10655.5291 1487.2841 0.0000 0.0000 1718.1966 -7447.9883 296.4127 -9166.1849 -7420.2583 299.4452 517.3099 644.5340 30016.5555 -37.7884 38.0573
ENERGY: 1500000 1.3313 1.3959 0.0000 0.0000 -10541.7099 1428.3565 0.0000 0.0000 1722.5292 -7388.0971 297.1601 -9110.6262 -7418.6948 299.3590 297.4916 371.3686 30005.3312 -42.4246 35.9408
TCL: Exiting due to exit command.
