Info: SIMULATION PARAMETERS:
Info: TIMESTEP               2
Info: NUMBER OF STEPS        0
Info: STEPS PER CYCLE        10
Info: PERIODIC CELL BASIS 1  31.667 0 0
Info: PERIODIC CELL BASIS 2  0 29.9916 0
Info: PERIODIC CELL BASIS 3  0 0 31.536
Info: PERIODIC CELL CENTER   0 0 0
Info: WRAPPING WATERS AROUND PERIODIC BOUNDARIES ON OUTPUT.
Info: WRAPPING ALL CLUSTERS AROUND PERIODIC BOUNDARIES ON OUTPUT.
Info: FIRST LDB TIMESTEP     50
Info: LAST LDB TIMESTEP     -1
Info: HOM BACKGROUND SCALING 1
Info: PME BACKGROUND SCALING 1
Info: MIN ATOMS PER PATCH    40
Info: EMPTY PATCH LOAD       40 ATOMS
Info: VELOCITY FILE          mobley_2689721_equil.vel
Info: CENTER OF MASS MOVING INITIALLY? NO
Info: DIELECTRIC             1
Info: EXCLUDE                SCALED ONE-FOUR
Info: 1-4 ELECTROSTATICS SCALED BY 0.833333
Info: MODIFIED 1-4 VDW PARAMETERS WILL BE USED
Info: DCD FILENAME           mobley_2689721_prod.dcd
Info: DCD FREQUENCY          100000
Info: DCD FIRST STEP         100000
Info: DCD FILE WILL CONTAIN UNIT CELL DATA
Info: XST FILENAME           mobley_2689721_prod.xst
Info: XST FREQUENCY          100000
Info: NO VELOCITY DCD OUTPUT
Info: NO FORCE DCD OUTPUT
Info: OUTPUT FILENAME        mobley_2689721_prod
Info: BINARY OUTPUT FILES WILL BE USED
Info: RESTART FILENAME       mobley_2689721_prod.restart
Info: RESTART FREQUENCY      100000
Info: BINARY RESTART FILES WILL BE USED
Info: CUTOFF                 9
Info: PAIRLIST DISTANCE      11
Info: PAIRLIST SHRINK RATE   0.01
Info: PAIRLIST GROW RATE     0.01
Info: PAIRLIST TRIGGER       0.3
Info: PAIRLISTS PER CYCLE    2
Info: PAIRLISTS ENABLED
Info: MARGIN                 2
Info: HYDROGEN GROUP CUTOFF  2.5
Info: PATCH DIMENSION        15.5
Info: ENERGY OUTPUT STEPS    100000
Info: ENERGY EVALUATION STEPS    100000
Info: OUTPUT ENERGY PRECISION 4
Info: CROSSTERM ENERGY INCLUDED IN DIHEDRAL
Info: TIMING OUTPUT STEPS    1000000
Info: PRESSURE OUTPUT STEPS  100000
Info: ALCHEMICAL FEP ON
Info: FEP CURRENT LAMBDA VALUE     0
Info: FEP COMPARISON LAMBDA VALUE  0.05
Info: FEP INTRA-ALCHEMICAL NON-BONDED INTERACTIONS WILL BE RETAINED
Info: FEP INTRA-ALCHEMICAL BONDED INTERACTIONS WILL BE RETAINED
Info: FEP VDW SHIFTING COEFFICIENT 5
Info: FEP ELEC. ACTIVE FOR ANNIHILATED PARTICLES BETWEEN LAMBDA = 0 AND LAMBDA = 0.5
Info: FEP ELEC. ACTIVE FOR EXNIHILATED PARTICLES BETWEEN LAMBDA = 0.5 AND LAMBDA = 1
Info: FEP VDW ACTIVE FOR ANNIHILATED PARTICLES BETWEEN LAMBDA = 0 AND LAMBDA = 1
Info: FEP VDW ACTIVE FOR EXNIHILATED PARTICLES BETWEEN LAMBDA = 0 AND LAMBDA = 1
Info: FEP BOND ACTIVE FOR ANNIHILATED PARTICLES BETWEEN LAMBDA = 1 AND LAMBDA = 1
Info: FEP BOND ACTIVE FOR EXNIHILATED PARTICLES BETWEEN LAMBDA = 0 AND LAMBDA = 0
Info: LANGEVIN DYNAMICS ACTIVE
Info: LANGEVIN TEMPERATURE   300
Info: LANGEVIN USING BBK INTEGRATOR
Info: LANGEVIN DAMPING COEFFICIENT IS 1 INVERSE PS
Info: LANGEVIN DYNAMICS APPLIED TO HYDROGENS
Info: LANGEVIN PISTON PRESSURE CONTROL ACTIVE
Info:        TARGET PRESSURE IS 1.01325 BAR
Info:     OSCILLATION PERIOD IS 50 FS
Info:             DECAY TIME IS 25 FS
Info:     PISTON TEMPERATURE IS 300 K
Info:       PRESSURE CONTROL IS GROUP-BASED
Info:    INITIAL STRAIN RATE IS -1.22395e-05 -1.22395e-05 -1.22395e-05
Info:       CELL FLUCTUATION IS ISOTROPIC
Info: PARTICLE MESH EWALD (PME) ACTIVE
Info: PME TOLERANCE               1e-06
Info: PME EWALD COEFFICIENT       0.348832
Info: PME INTERPOLATION ORDER     4
Info: PME GRID DIMENSIONS         32 32 32
Info: PME MAXIMUM GRID SPACING    1
Info: PME CALCULATION WILL BE PERFORMED ON GPU
Info: FULL ELECTROSTATIC EVALUATION FREQUENCY      2
Info: USING VERLET I (r-RESPA) MTS SCHEME.
Info: C1 SPLITTING OF LONG RANGE ELECTROSTATICS
Info: PLACING ATOMS IN PATCHES BY HYDROGEN GROUPS
Info: RIGID BONDS TO HYDROGEN : ALL
Info:         ERROR TOLERANCE : 1e-08
Info:          MAX ITERATIONS : 100
Info: RIGID WATER USING SETTLE ALGORITHM
Info: RANDOM NUMBER SEED     1742418450
Info: USE HYDROGEN BONDS?    NO
Info: Using AMBER format force field!
Info: AMBER PARM FILE        mobley_2689721.prmtop
Info: COORDINATE PDB         mobley_2689721.pdb
Info: Exclusions will be read from PARM file!
Info: SCNB (VDW SCALING)     2
Info: USING ARITHMETIC MEAN TO COMBINE L-J SIGMA PARAMETERS
Info: BINARY COORDINATES     mobley_2689721_equil.coor
Info: SUMMARY OF PARAMETERS:
Info: 4 BONDS
Info: 3 ANGLES
Info:   3 HARMONIC
Info:   0 COSINE-BASED
Info: 3 DIHEDRAL
Info: 0 IMPROPER
Info: 0 CROSSTERM
Info: 0 VDW
Info: 10 VDW_PAIRS
Info: 0 NBTHOLE_PAIRS
Info: To read alchdata from file: mobley_2689721.pdb
Info: To read alchflag data from column: 5
Info: STRUCTURE SUMMARY:
Info: 2904 ATOMS
Info: 2904 BONDS
Info: 36 ANGLES
Info: 54 DIHEDRALS
Info: 0 IMPROPERS
Info: 0 CROSSTERMS
Info: 2991 EXCLUSIONS
Info: 2898 RIGID BONDS
Info: ALCH: 0 ATOMS TO DISAPPEAR IN FINAL STATE
Info: ALCH: 18 ATOMS TO APPEAR IN FINAL STATE
Info: 5814 DEGREES OF FREEDOM
Info: 968 HYDROGEN GROUPS
Info: 3 ATOMS IN LARGEST HYDROGEN GROUP
Info: 968 MIGRATION GROUPS
Info: 3 ATOMS IN LARGEST MIGRATION GROUP
Info: TOTAL MASS = 17415.5 amu
Info: TOTAL CHARGE = 0.000499971 e
Info: MASS DENSITY = 0.965569 g/cm^3
Info: ATOM DENSITY = 0.096958 atoms/A^3
Info: ADDED 0 IMPLICIT EXCLUSIONS
Info: NONBONDED TABLE R-SQUARED SPACING: 0.0625
Info: NONBONDED TABLE SIZE: 705 POINTS
Info: REMOVING COM VELOCITY -0.101256 -0.0944768 0.0404401
Info: Use 3D box decompostion in PME FFT.
Info: Updated CUDA force table with 4096 elements.
Info: Updated CUDA LJ table with 4 x 4 elements.
Info: Found 21 unique exclusion lists needing 56 bytes
TCL: Running for 1500000 steps
ETITLE: TS BOND ANGLE DIHED IMPRP ELECT VDW BOUNDARY MISC KINETIC TOTAL TEMP POTENTIAL TOTALAVG TEMPAVG PRESSURE GPRESSURE VOLUME PRESSAVG GPRESSAVG
ENERGY: 0 0.7980 11.4976 0.6605 0.0000 -10567.6953 1505.2711 0.0000 0.0000 1770.7567 -7278.7112 306.5309 -9049.4680 -7278.7112 306.5309 781.6837 862.8015 29951.1076 781.6837 862.8015
ENERGY: 300000 0.5399 11.6478 2.1023 0.0000 -10615.0485 1466.8164 0.0000 0.0000 1797.6400 -7336.3022 311.1846 -9133.9422 -7328.2110 303.8679 511.0382 521.4241 29239.8925 143.1466 186.1163
ENERGY: 600000 2.3577 7.7547 0.5882 0.0000 -10445.7940 1378.0628 0.0000 0.0000 1726.7830 -7330.2476 298.9187 -9057.0306 -7332.1069 301.2496 -268.9047 -213.9051 29421.9963 -1.7047 42.6219
ENERGY: 900000 1.0412 6.6169 0.6838 0.0000 -10599.8048 1452.0492 0.0000 0.0000 1762.2388 -7377.1749 305.0564 -9139.4137 -7331.9548 301.9834 31.6861 76.4575 29766.2475 33.8422 78.9545
ENERGY: 1200000 3.6133 12.8337 0.6687 0.0000 -10445.8376 1424.1116 0.0000 0.0000 1727.2191 -7277.3911 298.9942 -9004.6102 -7338.8042 301.1706 151.4751 213.6427 29648.4524 44.4574 92.5272
ENERGY: 1500000 2.7354 8.4482 1.7802 0.0000 -10714.0727 1543.3805 0.0000 0.0000 1668.1213 -7489.6072 288.7639 -9157.7285 -7351.8620 300.7413 730.4244 775.6261 29419.9294 104.2260 153.2353
TCL: Running FEP window   2: Lambda1 0.05   Lambda2 0.1    [dLambda 0.05  ]
TCL: Setting parameter firsttimestep to 0
TCL: Setting parameter alchLambda to 0.05
Info: NONBONDED TABLE R-SQUARED SPACING: 0.0625
Info: NONBONDED TABLE SIZE: 705 POINTS
TCL: Setting parameter alchLambda2 to 0.1
Info: NONBONDED TABLE R-SQUARED SPACING: 0.0625
Info: NONBONDED TABLE SIZE: 705 POINTS
TCL: Running for 1500000 steps
ETITLE: TS BOND ANGLE DIHED IMPRP ELECT VDW BOUNDARY MISC KINETIC TOTAL TEMP POTENTIAL TOTALAVG TEMPAVG PRESSURE GPRESSURE VOLUME PRESSAVG GPRESSAVG
ENERGY: 0 2.7354 8.4482 1.7802 0.0000 -10714.0727 1545.0776 0.0000 0.0000 1667.2661 -7488.7653 288.6159 -9156.0314 -7488.7653 288.6159 699.1972 778.4905 29419.9294 699.1972 778.4905
ENERGY: 300000 0.7269 8.0007 0.6515 0.0000 -10532.7908 1481.3479 0.0000 0.0000 1656.3202 -7385.7437 286.7211 -9042.0639 -7364.3886 294.3058 587.4869 621.3111 29605.1046 529.6225 604.5722
ENERGY: 600000 2.0226 7.5146 1.6201 0.0000 -10523.4289 1392.2756 0.0000 0.0000 1733.4856 -7386.5103 300.0790 -9119.9959 -7384.4701 296.5425 -365.4488 -266.5112 29798.2078 207.0444 281.0779
ENERGY: 900000 2.4808 12.5743 1.7080 0.0000 -10447.9714 1398.1121 0.0000 0.0000 1784.6563 -7248.4397 308.9370 -9033.0961 -7372.2256 298.2003 67.9249 104.7763 29624.1597 142.6783 220.4776
ENERGY: 1200000 4.7036 6.5145 0.5377 0.0000 -10534.0292 1476.0431 0.0000 0.0000 1793.4797 -7252.7506 310.4644 -9046.2303 -7361.9502 299.0655 442.5503 539.7581 29759.4912 142.2431 221.8804
ENERGY: 1500000 0.7029 5.4050 1.7943 0.0000 -10494.3985 1399.2187 0.0000 0.0000 1698.9161 -7388.3615 294.0948 -9087.2776 -7352.3977 299.4595 -27.6112 19.8520 29484.8853 95.3585 169.3463
TCL: Running FEP window   3: Lambda1 0.1    Lambda2 0.15000000000000002 [dLambda 0.05000000000000002]
TCL: Setting parameter firsttimestep to 0
TCL: Setting parameter alchLambda to 0.1
Info: NONBONDED TABLE R-SQUARED SPACING: 0.0625
Info: NONBONDED TABLE SIZE: 705 POINTS
TCL: Setting parameter alchLambda2 to 0.15000000000000002
Info: NONBONDED TABLE R-SQUARED SPACING: 0.0625
Info: NONBONDED TABLE SIZE: 705 POINTS
TCL: Running for 1500000 steps
ETITLE: TS BOND ANGLE DIHED IMPRP ELECT VDW BOUNDARY MISC KINETIC TOTAL TEMP POTENTIAL TOTALAVG TEMPAVG PRESSURE GPRESSURE VOLUME PRESSAVG GPRESSAVG
ENERGY: 0 0.7029 5.4050 1.7943 0.0000 -10494.3978 1398.8480 0.0000 0.0000 1698.0533 -7389.5943 293.9454 -9087.6476 -7389.5943 293.9454 -59.7365 20.8738 29484.8853 -59.7365 20.8738
ENERGY: 300000 1.8111 5.0756 1.5863 0.0000 -10353.8691 1311.0100 0.0000 0.0000 1743.2924 -7291.0938 301.7766 -9034.3862 -7328.6013 301.2210 -827.9711 -806.3225 30077.9388 64.1099 100.2950
ENERGY: 600000 0.9193 8.2230 1.0269 0.0000 -10471.9942 1376.6682 0.0000 0.0000 1720.9240 -7364.2328 297.9045 -9085.1568 -7338.4325 299.2712 -412.7217 -288.8857 29851.9677 176.5101 229.9888
ENERGY: 900000 2.5837 9.4147 2.0929 0.0000 -10465.9529 1410.5702 0.0000 0.0000 1722.4498 -7318.8416 298.1686 -9041.2914 -7336.2239 299.5237 -162.4457 -161.6940 29993.7339 61.5342 117.9388
ENERGY: 1200000 0.9992 5.9959 0.5476 0.0000 -10635.7199 1466.3046 0.0000 0.0000 1750.4062 -7411.4665 303.0081 -9161.8726 -7353.5568 300.1324 385.7266 462.7632 29383.9465 118.8398 181.2072
ENERGY: 1500000 1.8938 6.4410 0.5106 0.0000 -10525.2623 1446.0170 0.0000 0.0000 1766.0310 -7304.3689 305.7128 -9070.3999 -7347.6253 300.4483 711.4848 650.0314 29442.2543 152.4510 207.5412
TCL: Running FEP window   4: Lambda1 0.15000000000000002 Lambda2 0.2    [dLambda 0.04999999999999999]
TCL: Setting parameter firsttimestep to 0
TCL: Setting parameter alchLambda to 0.15000000000000002
Info: NONBONDED TABLE R-SQUARED SPACING: 0.0625
Info: NONBONDED TABLE SIZE: 705 POINTS
TCL: Setting parameter alchLambda2 to 0.2
Info: NONBONDED TABLE R-SQUARED SPACING: 0.0625
Info: NONBONDED TABLE SIZE: 705 POINTS
TCL: Running for 1500000 steps
ETITLE: TS BOND ANGLE DIHED IMPRP ELECT VDW BOUNDARY MISC KINETIC TOTAL TEMP POTENTIAL TOTALAVG TEMPAVG PRESSURE GPRESSURE VOLUME PRESSAVG GPRESSAVG
ENERGY: 0 1.8938 6.4410 0.5106 0.0000 -10525.2617 1445.7548 0.0000 0.0000 1765.1304 -7305.5311 305.5569 -9070.6614 -7305.5311 305.5569 588.5607 654.7389 29442.2543 588.5607 654.7389
ENERGY: 300000 0.8639 6.7706 0.5835 0.0000 -10400.5688 1402.5984 0.0000 0.0000 1804.8782 -7184.8742 312.4376 -8989.7524 -7295.0892 305.1036 197.5499 259.1903 30096.3790 182.9596 235.9461
ENERGY: 600000 3.2709 10.5307 1.3729 0.0000 -10501.7327 1447.7048 0.0000 0.0000 1743.4139 -7295.4395 301.7977 -9038.8534 -7313.6786 302.8727 663.7498 700.0075 29496.5134 241.4860 296.8805
ENERGY: 900000 1.4243 9.8833 0.4980 0.0000 -10431.3368 1396.4631 0.0000 0.0000 1731.4328 -7291.6353 299.7236 -9023.0681 -7328.0002 302.2266 28.2507 167.9966 29583.9983 184.2615 238.7044
ENERGY: 1200000 2.8243 6.6623 0.4330 0.0000 -10497.9897 1416.2549 0.0000 0.0000 1744.8701 -7326.9450 302.0497 -9071.8151 -7326.5365 301.7396 -444.6603 -333.4170 30558.3267 103.9151 156.7858
ENERGY: 1500000 1.8132 5.9980 0.4014 0.0000 -10458.9346 1397.2027 0.0000 0.0000 1769.4212 -7284.0981 306.2997 -9053.5193 -7326.7057 301.8170 284.7166 330.3646 29433.6094 130.4928 180.2856
TCL: Running FEP window   5: Lambda1 0.2    Lambda2 0.25   [dLambda 0.04999999999999999]
TCL: Setting parameter firsttimestep to 0
TCL: Setting parameter alchLambda to 0.2
Info: NONBONDED TABLE R-SQUARED SPACING: 0.0625
Info: NONBONDED TABLE SIZE: 705 POINTS
TCL: Setting parameter alchLambda2 to 0.25
Info: NONBONDED TABLE R-SQUARED SPACING: 0.0625
Info: NONBONDED TABLE SIZE: 705 POINTS
TCL: Running for 1500000 steps
ETITLE: TS BOND ANGLE DIHED IMPRP ELECT VDW BOUNDARY MISC KINETIC TOTAL TEMP POTENTIAL TOTALAVG TEMPAVG PRESSURE GPRESSURE VOLUME PRESSAVG GPRESSAVG
ENERGY: 0 1.8132 5.9980 0.4014 0.0000 -10458.9345 1397.6320 0.0000 0.0000 1768.5417 -7284.5482 306.1475 -9053.0899 -7284.5482 306.1475 257.4592 337.0065 29433.6094 257.4592 337.0065
ENERGY: 300000 0.7186 10.0370 0.7785 0.0000 -10587.6275 1474.8521 0.0000 0.0000 1696.6875 -7404.5537 293.7090 -9101.2412 -7372.1436 299.4115 665.5357 716.7690 29295.6605 661.6568 713.3280
ENERGY: 600000 2.9195 12.0601 1.4402 0.0000 -10446.5946 1337.0182 0.0000 0.0000 1721.4499 -7371.7067 297.9955 -9093.1566 -7364.3926 299.3744 -586.0424 -484.7863 29444.4164 303.4034 361.8828
ENERGY: 900000 2.1322 7.2183 2.4893 0.0000 -10441.4840 1366.8438 0.0000 0.0000 1762.6696 -7300.1307 305.1310 -9062.8004 -7347.2756 299.7100 -282.5488 -126.9307 29631.1620 291.4931 355.8495
ENERGY: 1200000 3.9383 9.6691 1.2398 0.0000 -10576.4082 1423.4071 0.0000 0.0000 1691.8621 -7446.2917 292.8737 -9138.1538 -7352.6581 299.4139 8.1095 79.1108 29216.4214 271.0676 331.9267
ENERGY: 1500000 1.9501 10.2015 0.8570 0.0000 -10474.7324 1388.9255 0.0000 0.0000 1755.6110 -7317.1873 303.9091 -9072.7983 -7348.6716 299.8044 -299.5843 -293.4585 29886.3953 294.9669 349.5505
TCL: Running FEP window   6: Lambda1 0.25   Lambda2 0.3    [dLambda 0.04999999999999999]
TCL: Setting parameter firsttimestep to 0
TCL: Setting parameter alchLambda to 0.25
Info: NONBONDED TABLE R-SQUARED SPACING: 0.0625
Info: NONBONDED TABLE SIZE: 705 POINTS
TCL: Setting parameter alchLambda2 to 0.3
Info: NONBONDED TABLE R-SQUARED SPACING: 0.0625
Info: NONBONDED TABLE SIZE: 705 POINTS
TCL: Running for 1500000 steps
ETITLE: TS BOND ANGLE DIHED IMPRP ELECT VDW BOUNDARY MISC KINETIC TOTAL TEMP POTENTIAL TOTALAVG TEMPAVG PRESSURE GPRESSURE VOLUME PRESSAVG GPRESSAVG
ENERGY: 0 1.9501 10.2015 0.8570 0.0000 -10474.7311 1388.5268 0.0000 0.0000 1754.7572 -7318.4385 303.7613 -9073.1957 -7318.4385 303.7613 -357.3501 -291.7612 29886.3953 -357.3501 -291.7612
ENERGY: 300000 2.9774 6.5364 1.2945 0.0000 -10397.2252 1295.6319 0.0000 0.0000 1746.0477 -7344.7373 302.2536 -9090.7850 -7324.2965 304.3514 -977.9064 -871.1010 29762.1819 -202.4691 -119.2438
ENERGY: 600000 1.6374 8.9326 0.6787 0.0000 -10419.1718 1396.9398 0.0000 0.0000 1697.8736 -7313.1097 293.9143 -9010.9833 -7308.2892 304.0718 -110.7791 -118.2502 29980.5246 -109.6797 -51.0707
ENERGY: 900000 1.4994 10.4045 1.5459 0.0000 -10505.6047 1432.2771 0.0000 0.0000 1700.4733 -7359.4046 294.3643 -9059.8779 -7322.3165 301.4978 120.8611 93.4394 29884.4104 36.1137 74.1414
ENERGY: 1200000 2.2609 6.2949 0.9054 0.0000 -10568.2010 1424.4225 0.0000 0.0000 1759.5453 -7374.7720 304.5901 -9134.3174 -7317.0313 303.3015 -9.8466 78.5032 29585.9839 44.1568 88.4460
ENERGY: 1500000 3.4679 7.0315 1.1177 0.0000 -10402.8357 1343.5596 0.0000 0.0000 1731.1188 -7316.5401 299.6693 -9047.6589 -7322.2104 302.2477 -686.7229 -644.6103 30133.0174 8.7145 56.8530
TCL: Running FEP window   7: Lambda1 0.3    Lambda2 0.35   [dLambda 0.04999999999999999]
TCL: Setting parameter firsttimestep to 0
TCL: Setting parameter alchLambda to 0.3
Info: NONBONDED TABLE R-SQUARED SPACING: 0.0625
Info: NONBONDED TABLE SIZE: 705 POINTS
TCL: Setting parameter alchLambda2 to 0.35
Info: NONBONDED TABLE R-SQUARED SPACING: 0.0625
Info: NONBONDED TABLE SIZE: 705 POINTS
TCL: Running for 1500000 steps
ETITLE: TS BOND ANGLE DIHED IMPRP ELECT VDW BOUNDARY MISC KINETIC TOTAL TEMP POTENTIAL TOTALAVG TEMPAVG PRESSURE GPRESSURE VOLUME PRESSAVG GPRESSAVG
ENERGY: 0 3.4679 7.0315 1.1177 0.0000 -10402.8343 1343.2524 0.0000 0.0000 1730.2396 -7317.7251 299.5171 -9047.9647 -7317.7251 299.5171 -723.0134 -643.3810 30133.0174 -723.0134 -643.3810
ENERGY: 300000 1.5997 11.0072 0.9263 0.0000 -10351.3890 1347.6278 0.0000 0.0000 1694.2187 -7296.0093 293.2816 -8990.2280 -7346.6613 299.0239 -33.4036 40.0604 29648.1805 -404.6386 -348.0025
ENERGY: 600000 4.9413 7.9276 2.1146 0.0000 -10527.4321 1381.8695 0.0000 0.0000 1692.8882 -7437.6909 293.0513 -9130.5792 -7361.9978 297.1771 -435.1457 -345.5981 29629.7824 -160.5665 -113.0194
ENERGY: 900000 2.9499 10.1084 3.3248 0.0000 -10636.4798 1514.9335 0.0000 0.0000 1732.7801 -7372.3831 299.9569 -9105.1632 -7360.1147 297.5975 909.1716 980.4357 29537.0354 16.7760 71.0928
ENERGY: 1200000 3.1333 12.2342 1.9467 0.0000 -10528.4524 1420.6755 0.0000 0.0000 1721.7061 -7368.7566 298.0399 -9090.4627 -7375.9322 297.2145 -119.4222 21.8001 29642.9207 -72.8270 -13.6491
ENERGY: 1500000 1.7009 9.6549 1.5193 0.0000 -10431.1576 1396.4095 0.0000 0.0000 1720.8344 -7301.0386 297.8890 -9021.8730 -7369.0181 297.5686 -173.6292 -106.8823 30130.2714 -73.5137 -13.4769
TCL: Running FEP window   8: Lambda1 0.35   Lambda2 0.39999999999999997 [dLambda 0.04999999999999999]
TCL: Setting parameter firsttimestep to 0
TCL: Setting parameter alchLambda to 0.35
Info: NONBONDED TABLE R-SQUARED SPACING: 0.0625
Info: NONBONDED TABLE SIZE: 705 POINTS
TCL: Setting parameter alchLambda2 to 0.39999999999999997
Info: NONBONDED TABLE R-SQUARED SPACING: 0.0625
Info: NONBONDED TABLE SIZE: 705 POINTS
TCL: Running for 1500000 steps
ETITLE: TS BOND ANGLE DIHED IMPRP ELECT VDW BOUNDARY MISC KINETIC TOTAL TEMP POTENTIAL TOTALAVG TEMPAVG PRESSURE GPRESSURE VOLUME PRESSAVG GPRESSAVG
ENERGY: 0 1.7009 9.6549 1.5193 0.0000 -10431.1575 1396.3768 0.0000 0.0000 1719.9672 -7301.9385 297.7389 -9021.9056 -7301.9385 297.7389 -186.9196 -101.4414 30130.2714 -186.9196 -101.4414
ENERGY: 300000 2.0729 8.2983 0.2953 0.0000 -10603.0270 1440.9504 0.0000 0.0000 1690.1848 -7461.2253 292.5833 -9151.4101 -7356.4877 297.8375 -89.8827 38.0801 29524.8876 71.9437 164.0405
ENERGY: 600000 4.3520 7.7502 0.6434 0.0000 -10467.5225 1405.0354 0.0000 0.0000 1677.5027 -7372.2388 290.3879 -9049.7415 -7365.4122 298.4347 105.9532 121.5526 29637.0312 -181.3741 -114.0029
ENERGY: 900000 1.8275 13.2417 1.5843 0.0000 -10405.0049 1324.9793 0.0000 0.0000 1757.0604 -7306.3118 304.1600 -9063.3721 -7361.2939 299.0580 -518.0073 -441.8728 29422.3138 -207.1936 -142.0455
ENERGY: 1200000 4.7346 8.5453 0.7632 0.0000 -10528.8037 1343.7129 0.0000 0.0000 1709.1879 -7461.8598 295.8729 -9171.0477 -7371.1643 299.4841 -867.2674 -779.4162 29571.1687 -266.3923 -214.0929
ENERGY: 1500000 5.0122 9.6945 0.5391 0.0000 -10517.6946 1400.9805 0.0000 0.0000 1754.2298 -7347.2384 303.6700 -9101.4682 -7362.8377 299.9036 -175.0723 -82.3111 29653.0650 -255.5181 -195.6795
TCL: Running FEP window   9: Lambda1 0.39999999999999997 Lambda2 0.44999999999999996 [dLambda 0.04999999999999999]
TCL: Setting parameter firsttimestep to 0
TCL: Setting parameter alchLambda to 0.39999999999999997
Info: NONBONDED TABLE R-SQUARED SPACING: 0.0625
Info: NONBONDED TABLE SIZE: 705 POINTS
TCL: Setting parameter alchLambda2 to 0.44999999999999996
Info: NONBONDED TABLE R-SQUARED SPACING: 0.0625
Info: NONBONDED TABLE SIZE: 705 POINTS
TCL: Running for 1500000 steps
ETITLE: TS BOND ANGLE DIHED IMPRP ELECT VDW BOUNDARY MISC KINETIC TOTAL TEMP POTENTIAL TOTALAVG TEMPAVG PRESSURE GPRESSURE VOLUME PRESSAVG GPRESSAVG
ENERGY: 0 5.0122 9.6945 0.5391 0.0000 -10517.6940 1401.5044 0.0000 0.0000 1753.3515 -7347.5922 303.5179 -9100.9437 -7347.5922 303.5179 -160.7212 -74.0397 29653.0650 -160.7212 -74.0397
ENERGY: 300000 5.0305 11.4606 0.9339 0.0000 -10409.2539 1349.5495 0.0000 0.0000 1724.6351 -7317.6443 298.5469 -9042.2794 -7361.9183 299.3100 -570.6576 -545.3171 29988.4643 -291.3070 -210.6011
ENERGY: 600000 2.0527 7.4356 0.7887 0.0000 -10419.3412 1346.2863 0.0000 0.0000 1726.2702 -7336.5078 298.8300 -9062.7780 -7331.3909 300.6783 -442.7446 -371.9349 29832.7990 -428.7197 -366.0086
ENERGY: 900000 2.5781 5.5999 0.4483 0.0000 -10365.7288 1354.0951 0.0000 0.0000 1769.9760 -7233.0315 306.3957 -9003.0075 -7318.6055 301.1019 -500.5607 -405.0146 30100.2332 -348.5191 -288.3725
ENERGY: 1200000 0.9163 8.0604 0.7619 0.0000 -10478.7052 1373.6582 0.0000 0.0000 1703.0603 -7392.2480 294.8122 -9095.3084 -7322.7059 300.9043 -118.2038 -99.7732 29689.4570 -293.4597 -241.0289
ENERGY: 1500000 3.0306 5.4325 1.0555 0.0000 -10545.0157 1454.7055 0.0000 0.0000 1734.7628 -7346.0288 300.3001 -9080.7916 -7325.5195 301.0852 317.1379 412.7541 29572.0906 -277.6736 -221.7769
TCL: Running FEP window  10: Lambda1 0.44999999999999996 Lambda2 0.49999999999999994 [dLambda 0.04999999999999999]
TCL: Setting parameter firsttimestep to 0
TCL: Setting parameter alchLambda to 0.44999999999999996
Info: NONBONDED TABLE R-SQUARED SPACING: 0.0625
Info: NONBONDED TABLE SIZE: 705 POINTS
TCL: Setting parameter alchLambda2 to 0.49999999999999994
Info: NONBONDED TABLE R-SQUARED SPACING: 0.0625
Info: NONBONDED TABLE SIZE: 705 POINTS
TCL: Running for 1500000 steps
ETITLE: TS BOND ANGLE DIHED IMPRP ELECT VDW BOUNDARY MISC KINETIC TOTAL TEMP POTENTIAL TOTALAVG TEMPAVG PRESSURE GPRESSURE VOLUME PRESSAVG GPRESSAVG
ENERGY: 0 3.0306 5.4325 1.0555 0.0000 -10545.0155 1454.4126 0.0000 0.0000 1733.9015 -7347.1829 300.1510 -9081.0844 -7347.1829 300.1510 343.4722 418.6493 29572.0906 343.4722 418.6493
ENERGY: 300000 1.7336 10.1010 0.8609 0.0000 -10531.3960 1356.6312 0.0000 0.0000 1742.1415 -7419.9277 301.5774 -9162.0692 -7378.7608 298.1976 -638.8617 -576.1491 29530.9740 -204.5008 -136.3793
ENERGY: 600000 1.8209 6.9885 1.9519 0.0000 -10679.1522 1468.7244 0.0000 0.0000 1736.4065 -7463.2599 300.5846 -9199.6665 -7386.0092 297.1851 241.6850 290.8281 29662.0287 -67.8035 -10.1772
ENERGY: 900000 1.0593 10.0046 1.2176 0.0000 -10546.3385 1467.6836 0.0000 0.0000 1742.0678 -7324.3056 301.5646 -9066.3735 -7368.0661 299.0606 384.4636 440.3864 30122.6774 -23.5726 35.1202
ENERGY: 1200000 2.1355 5.3759 1.0295 0.0000 -10477.3162 1357.5784 0.0000 0.0000 1715.6973 -7395.4996 296.9997 -9111.1969 -7368.6318 297.9078 -402.4015 -380.7061 29710.0521 -2.4432 53.5344
ENERGY: 1500000 2.2171 6.3615 1.2182 0.0000 -10443.4173 1362.0153 0.0000 0.0000 1749.7118 -7321.8934 302.8879 -9071.6051 -7368.4708 297.4626 -561.0615 -510.8947 30037.2234 -37.6114 22.8499
TCL: Running FEP window  11: Lambda1 0.49999999999999994 Lambda2 0.5499999999999999 [dLambda 0.04999999999999999]
TCL: Setting parameter firsttimestep to 0
TCL: Setting parameter alchLambda to 0.49999999999999994
Info: NONBONDED TABLE R-SQUARED SPACING: 0.0625
Info: NONBONDED TABLE SIZE: 705 POINTS
TCL: Setting parameter alchLambda2 to 0.5499999999999999
Info: NONBONDED TABLE R-SQUARED SPACING: 0.0625
Info: NONBONDED TABLE SIZE: 705 POINTS
TCL: Running for 1500000 steps
ETITLE: TS BOND ANGLE DIHED IMPRP ELECT VDW BOUNDARY MISC KINETIC TOTAL TEMP POTENTIAL TOTALAVG TEMPAVG PRESSURE GPRESSURE VOLUME PRESSAVG GPRESSAVG
ENERGY: 0 2.2171 6.3615 1.2182 0.0000 -10443.4171 1361.8486 0.0000 0.0000 1748.8972 -7322.8745 302.7469 -9071.7717 -7322.8745 302.7469 -581.7250 -504.0090 30037.2234 -581.7250 -504.0090
ENERGY: 300000 1.0998 5.6721 0.8107 0.0000 -10541.4283 1437.0748 0.0000 0.0000 1725.1141 -7371.6568 298.6298 -9096.7709 -7350.0867 299.9369 489.5798 528.9345 29077.0184 -192.0728 -129.9785
ENERGY: 600000 2.4266 8.7260 1.4869 0.0000 -10387.0963 1367.4478 0.0000 0.0000 1686.4971 -7320.5120 291.9449 -9007.0091 -7337.9873 298.9938 -366.4529 -304.4428 30250.1835 -257.2773 -197.5663
ENERGY: 900000 0.7555 8.8041 1.5088 0.0000 -10504.5479 1395.9629 0.0000 0.0000 1760.4458 -7337.0707 304.7460 -9097.5166 -7337.4980 301.0735 -199.7094 -76.5408 30024.9101 -142.5575 -85.2849
ENERGY: 1200000 0.3840 8.2606 2.4741 0.0000 -10448.1349 1395.4772 0.0000 0.0000 1753.5273 -7288.0117 303.5484 -9041.5390 -7333.4568 301.0249 -390.2473 -303.0790 30434.4863 -189.4212 -132.5758
ENERGY: 1500000 3.8215 7.1045 2.2499 0.0000 -10456.8433 1378.7111 0.0000 0.0000 1708.9382 -7356.0181 295.8297 -9064.9563 -7329.0058 301.0980 -306.8320 -146.6578 29711.1351 -188.0483 -124.0179
TCL: Running FEP window  12: Lambda1 0.5499999999999999 Lambda2 0.6    [dLambda 0.050000000000000044]
TCL: Setting parameter firsttimestep to 0
TCL: Setting parameter alchLambda to 0.5499999999999999
Info: NONBONDED TABLE R-SQUARED SPACING: 0.0625
Info: NONBONDED TABLE SIZE: 705 POINTS
TCL: Setting parameter alchLambda2 to 0.6
Info: NONBONDED TABLE R-SQUARED SPACING: 0.0625
Info: NONBONDED TABLE SIZE: 705 POINTS
TCL: Running for 1500000 steps
ETITLE: TS BOND ANGLE DIHED IMPRP ELECT VDW BOUNDARY MISC KINETIC TOTAL TEMP POTENTIAL TOTALAVG TEMPAVG PRESSURE GPRESSURE VOLUME PRESSAVG GPRESSAVG
ENERGY: 0 3.8215 7.1045 2.2499 0.0000 -10456.7889 1379.8727 0.0000 0.0000 1708.0693 -7355.6710 295.6793 -9063.7404 -7355.6710 295.6793 -201.7180 -127.6102 29711.1351 -201.7180 -127.6102
ENERGY: 300000 3.0039 9.1240 0.9691 0.0000 -10504.8424 1438.6100 0.0000 0.0000 1736.9559 -7316.1796 300.6797 -9053.1355 -7346.6567 300.6795 451.4388 526.1199 29481.4691 474.8734 550.4851
ENERGY: 600000 1.5680 9.6431 1.3850 0.0000 -10436.0980 1385.1303 0.0000 0.0000 1737.1843 -7301.1873 300.7193 -9038.3715 -7345.4729 299.2300 -134.0794 -2.8450 29945.5976 326.1431 414.1488
ENERGY: 900000 0.4246 7.1293 0.5659 0.0000 -10496.9853 1400.3556 0.0000 0.0000 1745.6826 -7342.8273 302.1904 -9088.5098 -7354.5792 299.6458 185.6317 240.7179 29497.0564 317.3768 394.6179
ENERGY: 1200000 2.6075 13.1999 0.6624 0.0000 -10579.0101 1411.6365 0.0000 0.0000 1747.3057 -7403.5980 302.4714 -9150.9037 -7358.0914 299.2639 -130.9230 -90.0648 29327.0587 119.9125 193.1067
ENERGY: 1500000 1.7425 8.0528 1.0167 0.0000 -10513.9366 1379.8421 0.0000 0.0000 1720.0928 -7403.1896 297.7606 -9123.2824 -7362.1853 298.5177 -496.0857 -381.1578 29728.8343 131.7461 204.6371
TCL: Running FEP window  13: Lambda1 0.6    Lambda2 0.65   [dLambda 0.050000000000000044]
TCL: Setting parameter firsttimestep to 0
TCL: Setting parameter alchLambda to 0.6
Info: NONBONDED TABLE R-SQUARED SPACING: 0.0625
Info: NONBONDED TABLE SIZE: 705 POINTS
TCL: Setting parameter alchLambda2 to 0.65
Info: NONBONDED TABLE R-SQUARED SPACING: 0.0625
Info: NONBONDED TABLE SIZE: 705 POINTS
TCL: Running for 1500000 steps
ETITLE: TS BOND ANGLE DIHED IMPRP ELECT VDW BOUNDARY MISC KINETIC TOTAL TEMP POTENTIAL TOTALAVG TEMPAVG PRESSURE GPRESSURE VOLUME PRESSAVG GPRESSAVG
ENERGY: 0 1.7425 8.0528 1.0167 0.0000 -10513.9366 1380.4980 0.0000 0.0000 1719.2504 -7403.3761 297.6148 -9122.6264 -7403.3761 297.6148 -446.3559 -366.6405 29728.8343 -446.3559 -366.6405
ENERGY: 300000 0.7628 5.4596 1.4025 0.0000 -10439.0938 1394.4578 0.0000 0.0000 1708.9214 -7328.0898 295.8267 -9037.0111 -7356.9676 298.6009 -91.4330 -78.4768 30097.1217 -396.8202 -354.9663
ENERGY: 600000 1.7612 9.9276 0.7603 0.0000 -10339.7140 1302.6216 0.0000 0.0000 1731.9594 -7292.6839 299.8148 -9024.6433 -7334.0562 300.7144 -615.3911 -560.3025 29803.6309 -412.9188 -359.1901
ENERGY: 900000 4.7304 8.9434 0.6243 0.0000 -10666.7369 1559.1524 0.0000 0.0000 1743.5813 -7349.7051 301.8266 -9093.2864 -7330.6980 300.1218 1365.0878 1405.9687 29252.7158 -159.4324 -109.5196
ENERGY: 1200000 1.7035 8.2864 0.5381 0.0000 -10566.2869 1401.0362 0.0000 0.0000 1767.3417 -7387.3810 305.9397 -9154.7227 -7331.8508 301.1284 -199.8744 -82.0728 29428.9037 -115.2656 -62.5543
ENERGY: 1500000 0.4775 7.2567 0.7098 0.0000 -10397.9412 1333.0101 0.0000 0.0000 1710.9286 -7345.5583 296.1742 -9056.4869 -7341.3588 300.8960 -484.7791 -389.8479 29826.4315 -198.4179 -142.5498
TCL: Running FEP window  14: Lambda1 0.65   Lambda2 0.7000000000000001 [dLambda 0.050000000000000044]
TCL: Setting parameter firsttimestep to 0
TCL: Setting parameter alchLambda to 0.65
Info: NONBONDED TABLE R-SQUARED SPACING: 0.0625
Info: NONBONDED TABLE SIZE: 705 POINTS
TCL: Setting parameter alchLambda2 to 0.7000000000000001
Info: NONBONDED TABLE R-SQUARED SPACING: 0.0625
Info: NONBONDED TABLE SIZE: 705 POINTS
TCL: Running for 1500000 steps
ETITLE: TS BOND ANGLE DIHED IMPRP ELECT VDW BOUNDARY MISC KINETIC TOTAL TEMP POTENTIAL TOTALAVG TEMPAVG PRESSURE GPRESSURE VOLUME PRESSAVG GPRESSAVG
ENERGY: 0 0.4775 7.2567 0.7098 0.0000 -10397.8969 1333.5091 0.0000 0.0000 1710.0772 -7345.8665 296.0268 -9055.9437 -7345.8665 296.0268 -454.5259 -374.6356 29826.4315 -454.5259 -374.6356
ENERGY: 300000 2.4520 10.4390 1.2093 0.0000 -10538.2491 1427.4017 0.0000 0.0000 1758.4291 -7338.3180 304.3969 -9096.7471 -7349.8509 300.4629 68.6997 142.5888 29619.6762 -147.4391 -101.2503
ENERGY: 600000 0.9170 6.8504 1.9337 0.0000 -10479.8411 1383.0407 0.0000 0.0000 1802.7059 -7284.3932 312.0615 -9087.0991 -7360.8049 302.3925 -217.5297 -176.7082 29779.4752 -22.3616 22.4104
ENERGY: 900000 2.9863 9.8441 0.8192 0.0000 -10463.6770 1379.9114 0.0000 0.0000 1714.1505 -7355.9656 296.7319 -9070.1160 -7351.1991 302.0438 -283.2145 -236.2373 29732.1076 66.5301 120.5865
ENERGY: 1200000 0.5455 8.6941 2.1428 0.0000 -10420.3323 1346.6118 0.0000 0.0000 1688.5374 -7373.8007 292.2981 -9062.3381 -7349.2067 301.7866 -610.9748 -504.3311 30007.8321 -27.0999 25.1591
ENERGY: 1500000 0.4964 13.3414 1.3277 0.0000 -10552.8992 1447.1386 0.0000 0.0000 1723.1184 -7367.4767 298.2844 -9090.5951 -7344.5795 302.5692 161.1942 140.1683 29972.0487 1.5885 54.4492
TCL: Running FEP window  15: Lambda1 0.7000000000000001 Lambda2 0.7500000000000001 [dLambda 0.050000000000000044]
TCL: Setting parameter firsttimestep to 0
TCL: Setting parameter alchLambda to 0.7000000000000001
Info: NONBONDED TABLE R-SQUARED SPACING: 0.0625
Info: NONBONDED TABLE SIZE: 705 POINTS
TCL: Setting parameter alchLambda2 to 0.7500000000000001
Info: NONBONDED TABLE R-SQUARED SPACING: 0.0625
Info: NONBONDED TABLE SIZE: 705 POINTS
TCL: Running for 1500000 steps
ETITLE: TS BOND ANGLE DIHED IMPRP ELECT VDW BOUNDARY MISC KINETIC TOTAL TEMP POTENTIAL TOTALAVG TEMPAVG PRESSURE GPRESSURE VOLUME PRESSAVG GPRESSAVG
ENERGY: 0 0.4964 13.3414 1.3277 0.0000 -10552.8935 1447.1431 0.0000 0.0000 1722.2084 -7368.3765 298.1268 -9090.5849 -7368.3765 298.1268 83.0816 150.2919 29972.0487 83.0816 150.2919
ENERGY: 300000 0.8810 9.9679 1.7144 0.0000 -10496.4920 1350.1518 0.0000 0.0000 1710.8290 -7422.9479 296.1570 -9133.7769 -7365.3328 298.7882 -699.1043 -684.7055 29961.2598 155.2975 202.1587
ENERGY: 600000 1.5945 6.4597 0.2985 0.0000 -10503.6358 1405.0614 0.0000 0.0000 1726.5833 -7363.6383 298.8842 -9090.2216 -7360.4773 299.9670 -137.1989 -16.4194 29882.8661 64.3687 132.9736
ENERGY: 900000 1.6410 10.7132 1.9208 0.0000 -10430.7265 1410.7471 0.0000 0.0000 1786.6897 -7219.0145 309.2890 -9005.7043 -7356.0306 300.3023 344.3134 404.0825 29838.7478 107.7618 169.9918
ENERGY: 1200000 2.7830 11.2819 0.7599 0.0000 -10644.4701 1477.5738 0.0000 0.0000 1748.4696 -7403.6018 302.6728 -9152.0714 -7353.3572 300.3152 513.2004 575.8531 29451.1239 135.7773 196.3188
ENERGY: 1500000 2.2769 7.5741 0.7901 0.0000 -10593.5676 1444.4864 0.0000 0.0000 1759.4052 -7379.0350 304.5659 -9138.4401 -7349.9657 301.7133 219.9746 190.9067 29734.6283 147.0957 201.4348
TCL: Running FEP window  16: Lambda1 0.7500000000000001 Lambda2 0.8000000000000002 [dLambda 0.050000000000000044]
TCL: Setting parameter firsttimestep to 0
TCL: Setting parameter alchLambda to 0.7500000000000001
Info: NONBONDED TABLE R-SQUARED SPACING: 0.0625
Info: NONBONDED TABLE SIZE: 705 POINTS
TCL: Setting parameter alchLambda2 to 0.8000000000000002
Info: NONBONDED TABLE R-SQUARED SPACING: 0.0625
Info: NONBONDED TABLE SIZE: 705 POINTS
TCL: Running for 1500000 steps
ETITLE: TS BOND ANGLE DIHED IMPRP ELECT VDW BOUNDARY MISC KINETIC TOTAL TEMP POTENTIAL TOTALAVG TEMPAVG PRESSURE GPRESSURE VOLUME PRESSAVG GPRESSAVG
ENERGY: 0 2.2769 7.5741 0.7901 0.0000 -10593.5581 1444.2533 0.0000 0.0000 1758.5253 -7380.1385 304.4135 -9138.6637 -7380.1385 304.4135 124.7381 197.2651 29734.6283 124.7381 197.2651
ENERGY: 300000 3.7375 8.1691 1.1479 0.0000 -10603.0733 1433.8821 0.0000 0.0000 1712.5610 -7443.5758 296.4568 -9156.1368 -7370.3110 297.6231 -16.1748 4.1585 29498.1786 46.5847 84.9769
ENERGY: 600000 3.5177 10.3846 0.3521 0.0000 -10458.9180 1381.8311 0.0000 0.0000 1735.4155 -7327.4170 300.4131 -9062.8325 -7357.7279 300.9159 -476.6865 -436.8333 30290.5285 92.4721 147.4034
ENERGY: 900000 3.4034 6.3456 0.6559 0.0000 -10332.8717 1312.6781 0.0000 0.0000 1721.5333 -7288.2554 298.0100 -9009.7887 -7333.0754 300.9805 -867.6022 -785.7999 30284.4797 -68.9392 -6.8187
ENERGY: 1200000 1.9045 7.5666 1.1164 0.0000 -10392.4999 1380.7386 0.0000 0.0000 1764.4992 -7236.6745 305.4477 -9001.1738 -7319.3797 301.2803 -151.2138 -133.8586 30412.8919 -34.2503 31.2123
ENERGY: 1500000 1.4890 5.9247 1.7833 0.0000 -10442.7885 1317.1202 0.0000 0.0000 1743.2806 -7373.1908 301.7746 -9116.4714 -7325.4294 300.8839 -825.5252 -663.7183 29518.8431 -109.7623 -42.9375
TCL: Running FEP window  17: Lambda1 0.8000000000000002 Lambda2 0.8500000000000002 [dLambda 0.050000000000000044]
TCL: Setting parameter firsttimestep to 0
TCL: Setting parameter alchLambda to 0.8000000000000002
Info: NONBONDED TABLE R-SQUARED SPACING: 0.0625
Info: NONBONDED TABLE SIZE: 705 POINTS
TCL: Setting parameter alchLambda2 to 0.8500000000000002
Info: NONBONDED TABLE R-SQUARED SPACING: 0.0625
Info: NONBONDED TABLE SIZE: 705 POINTS
TCL: Running for 1500000 steps
ETITLE: TS BOND ANGLE DIHED IMPRP ELECT VDW BOUNDARY MISC KINETIC TOTAL TEMP POTENTIAL TOTALAVG TEMPAVG PRESSURE GPRESSURE VOLUME PRESSAVG GPRESSAVG
ENERGY: 0 1.4890 5.9247 1.7833 0.0000 -10442.7716 1316.8137 0.0000 0.0000 1742.3987 -7374.3622 301.6219 -9116.7610 -7374.3622 301.6219 -734.9995 -654.6785 29518.8431 -734.9995 -654.6785
ENERGY: 300000 2.9352 11.7948 0.6007 0.0000 -10645.6584 1534.4897 0.0000 0.0000 1694.0663 -7401.7717 293.2552 -9095.8379 -7376.5715 295.8482 869.4830 941.9072 29902.8879 -70.0152 -18.7400
ENERGY: 600000 1.2559 6.3521 1.1878 0.0000 -10363.1611 1259.5251 0.0000 0.0000 1760.9725 -7333.8677 304.8372 -9094.8403 -7353.1808 299.9302 -1069.6843 -1042.9079 29797.5513 -323.0945 -273.8961
ENERGY: 900000 1.0953 8.5817 0.7804 0.0000 -10563.3543 1427.9020 0.0000 0.0000 1724.4707 -7400.5242 298.5185 -9124.9949 -7359.3046 300.1434 132.8962 196.5323 29475.9070 -221.6229 -159.0265
ENERGY: 1200000 1.7755 6.7720 1.6158 0.0000 -10572.1438 1372.8062 0.0000 0.0000 1655.8611 -7533.3132 286.6416 -9189.1742 -7367.1425 300.1642 -715.7619 -608.8188 29644.4339 -151.5897 -88.1110
ENERGY: 1500000 1.0697 11.2915 1.1310 0.0000 -10604.2800 1439.6270 0.0000 0.0000 1741.5830 -7409.5779 301.4807 -9151.1608 -7363.7838 300.6990 134.0942 196.4069 29692.1342 -39.9356 25.7844
TCL: Running FEP window  18: Lambda1 0.8500000000000002 Lambda2 0.9000000000000002 [dLambda 0.050000000000000044]
TCL: Setting parameter firsttimestep to 0
TCL: Setting parameter alchLambda to 0.8500000000000002
Info: NONBONDED TABLE R-SQUARED SPACING: 0.0625
Info: NONBONDED TABLE SIZE: 705 POINTS
TCL: Setting parameter alchLambda2 to 0.9000000000000002
Info: NONBONDED TABLE R-SQUARED SPACING: 0.0625
Info: NONBONDED TABLE SIZE: 705 POINTS
TCL: Running for 1500000 steps
ETITLE: TS BOND ANGLE DIHED IMPRP ELECT VDW BOUNDARY MISC KINETIC TOTAL TEMP POTENTIAL TOTALAVG TEMPAVG PRESSURE GPRESSURE VOLUME PRESSAVG GPRESSAVG
ENERGY: 0 1.0697 11.2915 1.1310 0.0000 -10604.2552 1439.8038 0.0000 0.0000 1740.6867 -7410.2724 301.3256 -9150.9591 -7410.2724 301.3256 127.7970 211.1071 29692.1342 127.7970 211.1071
ENERGY: 300000 0.6469 3.5308 1.3341 0.0000 -10513.5487 1401.7452 0.0000 0.0000 1738.1656 -7368.1260 300.8891 -9106.2917 -7371.2409 301.5628 -72.1380 15.9847 29849.1143 -69.0796 7.9305
ENERGY: 600000 1.9031 6.8346 0.6409 0.0000 -10394.8056 1342.1065 0.0000 0.0000 1780.9218 -7262.3986 308.2905 -9043.3204 -7354.8333 302.8033 -616.2011 -570.0983 30142.9967 -125.2931 -70.9400
ENERGY: 900000 1.3933 7.1152 1.5689 0.0000 -10357.4109 1345.6474 0.0000 0.0000 1707.4774 -7294.2087 295.5768 -9001.6861 -7355.7992 301.8737 -525.1961 -447.5630 30253.0100 -51.8725 5.1752
ENERGY: 1200000 5.2328 11.7322 0.7934 0.0000 -10495.9215 1418.2611 0.0000 0.0000 1755.4443 -7304.4577 303.8802 -9059.9020 -7360.4821 300.4828 103.7679 196.3450 29938.6180 10.9718 71.5715
ENERGY: 1500000 3.9592 4.5679 1.2670 0.0000 -10520.2902 1368.9369 0.0000 0.0000 1767.9038 -7373.6554 306.0370 -9141.5591 -7357.9608 300.6728 -395.0760 -392.6181 29616.8217 -73.1018 -16.6203
TCL: Running FEP window  19: Lambda1 0.9000000000000002 Lambda2 0.9500000000000003 [dLambda 0.050000000000000044]
TCL: Setting parameter firsttimestep to 0
TCL: Setting parameter alchLambda to 0.9000000000000002
Info: NONBONDED TABLE R-SQUARED SPACING: 0.0625
Info: NONBONDED TABLE SIZE: 705 POINTS
TCL: Setting parameter alchLambda2 to 0.9500000000000003
Info: NONBONDED TABLE R-SQUARED SPACING: 0.0625
Info: NONBONDED TABLE SIZE: 705 POINTS
TCL: Running for 1500000 steps
ETITLE: TS BOND ANGLE DIHED IMPRP ELECT VDW BOUNDARY MISC KINETIC TOTAL TEMP POTENTIAL TOTALAVG TEMPAVG PRESSURE GPRESSURE VOLUME PRESSAVG GPRESSAVG
ENERGY: 0 3.9592 4.5679 1.2670 0.0000 -10520.2997 1369.0958 0.0000 0.0000 1767.0136 -7374.3963 305.8829 -9141.4099 -7374.3963 305.8829 -451.8289 -379.0196 29616.8217 -451.8289 -379.0196
ENERGY: 300000 3.1526 12.5224 0.9765 0.0000 -10547.4490 1399.3043 0.0000 0.0000 1764.4949 -7366.9984 305.4469 -9131.4933 -7363.2542 304.0411 21.9813 83.9501 29627.4361 -452.3577 -393.8146
ENERGY: 600000 3.0916 7.1225 0.3832 0.0000 -10407.1327 1345.7317 0.0000 0.0000 1718.8247 -7331.9791 297.5411 -9050.8037 -7359.2334 299.3332 -401.5081 -339.9384 30029.1255 -229.8973 -179.4792
ENERGY: 900000 1.0892 7.5905 0.9227 0.0000 -10538.1287 1399.1540 0.0000 0.0000 1765.7318 -7363.6405 305.6610 -9129.3723 -7345.6767 300.2734 -142.9116 -65.7992 29633.8573 -155.8018 -100.6992
ENERGY: 1200000 1.4782 10.0753 0.8176 0.0000 -10494.1001 1470.6741 0.0000 0.0000 1698.3750 -7312.6799 294.0011 -9011.0549 -7349.5948 299.3976 676.6391 707.0017 29794.6868 -74.9668 -24.5855
ENERGY: 1500000 1.7170 4.5803 0.8597 0.0000 -10516.8007 1487.8068 0.0000 0.0000 1757.3534 -7264.4836 304.2107 -9021.8370 -7347.5480 299.9763 483.4947 563.9491 30434.4579 48.4810 99.7550
TCL: Running FEP window  20: Lambda1 0.9500000000000003 Lambda2 1.0    [dLambda 0.04999999999999971]
TCL: Setting parameter firsttimestep to 0
TCL: Setting parameter alchLambda to 0.9500000000000003
Info: NONBONDED TABLE R-SQUARED SPACING: 0.0625
Info: NONBONDED TABLE SIZE: 705 POINTS
TCL: Setting parameter alchLambda2 to 1.0
Info: NONBONDED TABLE R-SQUARED SPACING: 0.0625
Info: NONBONDED TABLE SIZE: 705 POINTS
TCL: Running for 1500000 steps
ETITLE: TS BOND ANGLE DIHED IMPRP ELECT VDW BOUNDARY MISC KINETIC TOTAL TEMP POTENTIAL TOTALAVG TEMPAVG PRESSURE GPRESSURE VOLUME PRESSAVG GPRESSAVG
ENERGY: 0 1.7170 4.5803 0.8597 0.0000 -10516.8137 1488.7018 0.0000 0.0000 1756.4916 -7264.4634 304.0615 -9020.9549 -7264.4634 304.0615 511.8109 589.1118 30434.4579 511.8109 589.1118
ENERGY: 300000 3.0426 9.8499 0.3699 0.0000 -10537.5566 1462.8774 0.0000 0.0000 1721.7131 -7339.7037 298.0411 -9061.4167 -7293.9505 304.5612 179.1455 225.3118 30329.2645 190.7087 263.5993
ENERGY: 600000 0.6610 6.5800 0.7104 0.0000 -10570.5774 1400.3310 0.0000 0.0000 1737.0327 -7425.2623 300.6930 -9162.2950 -7343.5921 301.4340 -246.3016 -189.3452 29801.6835 30.6105 86.2453
ENERGY: 900000 2.1841 6.3050 2.0782 0.0000 -10514.5623 1366.9122 0.0000 0.0000 1765.6843 -7371.3985 305.6528 -9137.0828 -7356.5715 300.8739 -475.2257 -357.3595 29712.9569 -18.0151 57.5897
ENERGY: 1200000 2.8548 8.0335 0.6802 0.0000 -10488.1543 1391.4527 0.0000 0.0000 1679.0827 -7406.0503 290.6615 -9085.1330 -7351.0526 299.9392 -320.2637 -213.8859 29989.8863 -69.7162 6.6052
ENERGY: 1500000 1.7045 17.4900 2.9468 0.0000 -10671.9453 1501.9546 0.0000 0.0000 1738.0489 -7409.8004 300.8689 -9147.8493 -7350.7268 300.1846 570.7172 700.5894 29660.6491 -4.2159 71.8339
TCL: Exiting due to exit command.
