Info: SIMULATION PARAMETERS:
Info: TIMESTEP               2
Info: NUMBER OF STEPS        0
Info: STEPS PER CYCLE        10
Info: PERIODIC CELL BASIS 1  36.005 0 0
Info: PERIODIC CELL BASIS 2  0 34.696 0
Info: PERIODIC CELL BASIS 3  0 0 35.723
Info: PERIODIC CELL CENTER   0 0 0
Info: WRAPPING WATERS AROUND PERIODIC BOUNDARIES ON OUTPUT.
Info: WRAPPING ALL CLUSTERS AROUND PERIODIC BOUNDARIES ON OUTPUT.
Info: FIRST LDB TIMESTEP     50
Info: LAST LDB TIMESTEP     -1
Info: HOM BACKGROUND SCALING 1
Info: PME BACKGROUND SCALING 1
Info: MIN ATOMS PER PATCH    40
Info: EMPTY PATCH LOAD       40 ATOMS
Info: INITIAL TEMPERATURE    300
Info: CENTER OF MASS MOVING INITIALLY? NO
Info: DIELECTRIC             1
Info: EXCLUDE                SCALED ONE-FOUR
Info: 1-4 ELECTROSTATICS SCALED BY 0.833333
Info: MODIFIED 1-4 VDW PARAMETERS WILL BE USED
Info: DCD FILENAME           mobley_6714389_equil.dcd
Info: DCD FREQUENCY          100000
Info: DCD FIRST STEP         100000
Info: DCD FILE WILL CONTAIN UNIT CELL DATA
Info: XST FILENAME           mobley_6714389_equil.xst
Info: XST FREQUENCY          100000
Info: NO VELOCITY DCD OUTPUT
Info: NO FORCE DCD OUTPUT
Info: OUTPUT FILENAME        mobley_6714389_equil
Info: BINARY OUTPUT FILES WILL BE USED
Info: RESTART FILENAME       mobley_6714389_equil.restart
Info: RESTART FREQUENCY      100000
Info: BINARY RESTART FILES WILL BE USED
Info: CUTOFF                 9
Info: PAIRLIST DISTANCE      11
Info: PAIRLIST SHRINK RATE   0.01
Info: PAIRLIST GROW RATE     0.01
Info: PAIRLIST TRIGGER       0.3
Info: PAIRLISTS PER CYCLE    2
Info: PAIRLISTS ENABLED
Info: MARGIN                 8
Info: HYDROGEN GROUP CUTOFF  2.5
Info: PATCH DIMENSION        21.5
Info: ENERGY OUTPUT STEPS    100000
Info: ENERGY EVALUATION STEPS    100000
Info: OUTPUT ENERGY PRECISION 4
Info: CROSSTERM ENERGY INCLUDED IN DIHEDRAL
Info: TIMING OUTPUT STEPS    1000000
Info: PRESSURE OUTPUT STEPS  100000
Info: LANGEVIN DYNAMICS ACTIVE
Info: LANGEVIN TEMPERATURE   30
Info: LANGEVIN USING BBK INTEGRATOR
Info: LANGEVIN DAMPING COEFFICIENT IS 1 INVERSE PS
Info: LANGEVIN DYNAMICS APPLIED TO HYDROGENS
Info: LANGEVIN PISTON PRESSURE CONTROL ACTIVE
Info:        TARGET PRESSURE IS 1.01325 BAR
Info:     OSCILLATION PERIOD IS 50 FS
Info:             DECAY TIME IS 25 FS
Info:     PISTON TEMPERATURE IS 300 K
Info:       PRESSURE CONTROL IS GROUP-BASED
Info:    INITIAL STRAIN RATE IS 0 0 0
Info:       CELL FLUCTUATION IS ISOTROPIC
Info: PARTICLE MESH EWALD (PME) ACTIVE
Info: PME TOLERANCE               1e-06
Info: PME EWALD COEFFICIENT       0.348832
Info: PME INTERPOLATION ORDER     4
Info: PME GRID DIMENSIONS         40 36 36
Info: PME MAXIMUM GRID SPACING    1
Info: FULL ELECTROSTATIC EVALUATION FREQUENCY      2
Info: USING VERLET I (r-RESPA) MTS SCHEME.
Info: C1 SPLITTING OF LONG RANGE ELECTROSTATICS
Info: PLACING ATOMS IN PATCHES BY HYDROGEN GROUPS
Info: RIGID BONDS TO HYDROGEN : ALL
Info:         ERROR TOLERANCE : 1e-08
Info:          MAX ITERATIONS : 100
Info: RIGID WATER USING SETTLE ALGORITHM
Info: RANDOM NUMBER SEED     1742445191
Info: USE HYDROGEN BONDS?    NO
Info: Using AMBER format force field!
Info: AMBER PARM FILE        mobley_6714389.prmtop
Info: COORDINATE PDB         mobley_6714389.pdb
Info: Exclusions will be read from PARM file!
Info: SCNB (VDW SCALING)     2
Info: USING ARITHMETIC MEAN TO COMBINE L-J SIGMA PARAMETERS
Info: BINARY COORDINATES     mobley_6714389_min.coor
Info: SUMMARY OF PARAMETERS:
Info: 5 BONDS
Info: 4 ANGLES
Info:   4 HARMONIC
Info:   0 COSINE-BASED
Info: 1 DIHEDRAL
Info: 0 IMPROPER
Info: 0 CROSSTERM
Info: 0 VDW
Info: 21 VDW_PAIRS
Info: 0 NBTHOLE_PAIRS
Info: STRUCTURE SUMMARY:
Info: 2995 ATOMS
Info: 2994 BONDS
Info: 9 ANGLES
Info: 6 DIHEDRALS
Info: 0 IMPROPERS
Info: 0 CROSSTERMS
Info: 3009 EXCLUSIONS
Info: 2993 RIGID BONDS
Info: 5992 DEGREES OF FREEDOM
Info: 998 HYDROGEN GROUPS
Info: 4 ATOMS IN LARGEST HYDROGEN GROUP
Info: 998 MIGRATION GROUPS
Info: 4 ATOMS IN LARGEST MIGRATION GROUP
Info: TOTAL MASS = 17975 amu
Info: TOTAL CHARGE = 0.000100093 e
Info: MASS DENSITY = 0.668864 g/cm^3
Info: ATOM DENSITY = 0.067113 atoms/A^3
Info: ADDED 0 IMPLICIT EXCLUSIONS
Info: NONBONDED TABLE R-SQUARED SPACING: 0.0625
Info: NONBONDED TABLE SIZE: 705 POINTS
Info: REMOVING COM VELOCITY -0.22369 -0.141051 -0.226041
TCL: Running for 100000 steps
ETITLE: TS BOND ANGLE DIHED IMPRP ELECT VDW BOUNDARY MISC KINETIC TOTAL TEMP POTENTIAL TOTAL3 TEMPAVG PRESSURE GPRESSURE VOLUME PRESSAVG GPRESSAVG
ENERGY: 0 0.0425 0.3061 0.0655 0.0000 -13865.9587 2439.0666 0.0000 0.0000 1871.3246 -9555.1534 314.3169 -11426.4780 -9554.7769 314.3169 550.0595 578.0608 44626.2247 550.0595 578.0608
ENERGY: 100000 0.0245 0.3664 0.0661 0.0000 -14414.3552 2479.4788 0.0000 0.0000 177.3523 -11757.0670 29.7890 -11934.4194 -11756.5727 30.9479 -233.2419 -209.1847 29305.9204 4.9170 4.8564
TCL: Running 100000 steps at 60 kelvin.
TCL: Setting parameter langevinTemp to 60
TCL: Running for 100000 steps
ETITLE: TS BOND ANGLE DIHED IMPRP ELECT VDW BOUNDARY MISC KINETIC TOTAL TEMP POTENTIAL TOTAL3 TEMPAVG PRESSURE GPRESSURE VOLUME PRESSAVG GPRESSAVG
ENERGY: 100000 0.0245 0.3664 0.0661 0.0000 -14414.3552 2479.4788 0.0000 0.0000 177.2617 -11757.1577 29.7737 -11934.4194 -11756.7602 29.7737 -252.0892 -209.0266 29305.9204 -252.0892 -209.0266
ENERGY: 200000 0.2214 0.7191 0.1068 0.0000 -14300.0287 2450.9348 0.0000 0.0000 352.6277 -11495.4189 59.2291 -11848.0466 -11494.4364 59.9146 -316.1833 -252.0163 29417.5495 4.0966 4.1860
TCL: Running 100000 steps at 90 kelvin.
TCL: Setting parameter langevinTemp to 90
TCL: Running for 100000 steps
ETITLE: TS BOND ANGLE DIHED IMPRP ELECT VDW BOUNDARY MISC KINETIC TOTAL TEMP POTENTIAL TOTAL3 TEMPAVG PRESSURE GPRESSURE VOLUME PRESSAVG GPRESSAVG
ENERGY: 200000 0.2214 0.7191 0.1068 0.0000 -14300.0287 2450.9348 0.0000 0.0000 352.4503 -11495.5963 59.1993 -11848.0466 -11494.7034 59.1993 -310.8837 -251.7602 29417.5495 -310.8837 -251.7602
ENERGY: 300000 0.0880 0.4648 0.2061 0.0000 -14274.3053 2502.1290 0.0000 0.0000 519.9441 -11251.4734 87.3324 -11771.4175 -11250.6072 90.0069 659.8484 687.5722 29032.2161 3.9304 3.9235
TCL: Running 100000 steps at 120 kelvin.
TCL: Setting parameter langevinTemp to 120
TCL: Running for 100000 steps
ETITLE: TS BOND ANGLE DIHED IMPRP ELECT VDW BOUNDARY MISC KINETIC TOTAL TEMP POTENTIAL TOTAL3 TEMPAVG PRESSURE GPRESSURE VOLUME PRESSAVG GPRESSAVG
ENERGY: 300000 0.0880 0.4648 0.2061 0.0000 -14274.3053 2502.1290 0.0000 0.0000 519.6843 -11251.7332 87.2887 -11771.4175 -11250.8135 87.2887 639.9959 687.5133 29032.2161 639.9959 687.5133
ENERGY: 400000 0.3506 1.4038 0.2050 0.0000 -14084.4726 2445.4588 0.0000 0.0000 723.6122 -10913.4422 121.5415 -11637.0544 -10912.0107 119.7256 768.1634 845.0092 28909.3214 3.9887 4.0006
TCL: Running 100000 steps at 150 kelvin.
TCL: Setting parameter langevinTemp to 150
TCL: Running for 100000 steps
ETITLE: TS BOND ANGLE DIHED IMPRP ELECT VDW BOUNDARY MISC KINETIC TOTAL TEMP POTENTIAL TOTAL3 TEMPAVG PRESSURE GPRESSURE VOLUME PRESSAVG GPRESSAVG
ENERGY: 400000 0.3506 1.4038 0.2050 0.0000 -14084.4726 2445.4588 0.0000 0.0000 723.2510 -10913.8034 121.4808 -11637.0544 -10912.3136 121.4808 787.5996 845.4368 28909.3214 787.5996 845.4368
ENERGY: 500000 1.0873 0.5356 0.2685 0.0000 -13707.6482 2273.4329 0.0000 0.0000 878.6997 -10553.6242 147.5907 -11432.3239 -10551.1941 150.4857 -30.5695 16.6463 29220.3119 3.7035 3.6852
TCL: Running 100000 steps at 180 kelvin.
TCL: Setting parameter langevinTemp to 180
TCL: Running for 100000 steps
ETITLE: TS BOND ANGLE DIHED IMPRP ELECT VDW BOUNDARY MISC KINETIC TOTAL TEMP POTENTIAL TOTAL3 TEMPAVG PRESSURE GPRESSURE VOLUME PRESSAVG GPRESSAVG
ENERGY: 500000 1.0873 0.5356 0.2685 0.0000 -13707.6482 2273.4329 0.0000 0.0000 878.2570 -10554.0669 147.5164 -11432.3239 -10552.2799 147.5164 -45.8550 17.8179 29220.3119 -45.8550 17.8179
ENERGY: 600000 0.1855 0.8648 1.1300 0.0000 -13388.4546 2218.0338 0.0000 0.0000 1053.9980 -10114.2425 177.0347 -11168.2405 -10110.5037 180.2268 213.4897 310.5865 29476.1511 3.4411 3.3456
TCL: Running 100000 steps at 210 kelvin.
TCL: Setting parameter langevinTemp to 210
TCL: Running for 100000 steps
ETITLE: TS BOND ANGLE DIHED IMPRP ELECT VDW BOUNDARY MISC KINETIC TOTAL TEMP POTENTIAL TOTAL3 TEMPAVG PRESSURE GPRESSURE VOLUME PRESSAVG GPRESSAVG
ENERGY: 600000 0.1855 0.8648 1.1300 0.0000 -13388.4546 2218.0338 0.0000 0.0000 1053.4929 -10114.7476 176.9499 -11168.2405 -10113.0029 176.9499 246.8939 312.5209 29476.1511 246.8939 312.5209
ENERGY: 700000 0.0531 1.5749 0.4600 0.0000 -12626.2419 1900.9876 0.0000 0.0000 1265.1385 -9458.0278 212.4989 -10723.1664 -9453.9289 209.7491 -634.2304 -570.3892 29496.9092 4.1794 4.1062
TCL: Running 100000 steps at 240 kelvin.
TCL: Setting parameter langevinTemp to 240
TCL: Running for 100000 steps
ETITLE: TS BOND ANGLE DIHED IMPRP ELECT VDW BOUNDARY MISC KINETIC TOTAL TEMP POTENTIAL TOTAL3 TEMPAVG PRESSURE GPRESSURE VOLUME PRESSAVG GPRESSAVG
ENERGY: 700000 0.0531 1.5749 0.4600 0.0000 -12626.2419 1900.9876 0.0000 0.0000 1264.5030 -9458.6633 212.3921 -10723.1664 -9455.7916 212.3921 -650.5080 -570.0595 29496.9092 -650.5080 -570.0595
ENERGY: 800000 0.4924 2.7250 0.1455 0.0000 -12045.2195 1814.7141 0.0000 0.0000 1473.5192 -8753.6233 247.4995 -10227.1425 -8751.1669 240.3688 797.5208 854.2341 29142.2457 4.3343 4.2251
TCL: Running 100000 steps at 270 kelvin.
TCL: Setting parameter langevinTemp to 270
TCL: Running for 100000 steps
ETITLE: TS BOND ANGLE DIHED IMPRP ELECT VDW BOUNDARY MISC KINETIC TOTAL TEMP POTENTIAL TOTAL3 TEMPAVG PRESSURE GPRESSURE VOLUME PRESSAVG GPRESSAVG
ENERGY: 800000 0.4924 2.7250 0.1455 0.0000 -12045.2195 1814.7141 0.0000 0.0000 1472.8315 -8754.3110 247.3840 -10227.1425 -8752.3298 247.3840 784.0644 854.4157 29142.2457 784.0644 854.4157
ENERGY: 900000 0.1429 2.6406 0.0876 0.0000 -11352.7857 1527.3859 0.0000 0.0000 1583.9885 -8238.5402 266.0545 -9822.5287 -8236.3521 269.7159 -713.5750 -562.0898 30153.0218 3.0504 3.0364
TCL: Running 1000000 steps at 300 kelvin.
TCL: Setting parameter langevinTemp to 300
TCL: Running for 1000000 steps
ETITLE: TS BOND ANGLE DIHED IMPRP ELECT VDW BOUNDARY MISC KINETIC TOTAL TEMP POTENTIAL TOTAL3 TEMPAVG PRESSURE GPRESSURE VOLUME PRESSAVG GPRESSAVG
ENERGY: 900000 0.1429 2.6406 0.0876 0.0000 -11352.7857 1527.3859 0.0000 0.0000 1583.1681 -8239.3606 265.9167 -9822.5287 -8236.7213 265.9167 -641.3631 -563.4308 30153.0218 -641.3631 -563.4308
ENERGY: 1100000 0.0975 3.1996 2.1273 0.0000 -10951.4202 1427.9128 0.0000 0.0000 1750.4767 -7767.6063 294.0187 -9518.0830 -7764.7443 300.6654 -530.9701 -440.6609 30737.4857 2.6201 2.6775
ENERGY: 1300000 0.2943 1.7999 0.1370 0.0000 -10954.9300 1508.3264 0.0000 0.0000 1807.5595 -7636.8129 303.6066 -9444.3724 -7635.6102 301.0593 188.7845 330.7328 30538.5343 3.3577 3.0882
ENERGY: 1500000 0.6444 3.4885 0.1968 0.0000 -10965.5690 1513.6218 0.0000 0.0000 1770.3039 -7677.3135 297.3490 -9447.6175 -7674.2240 300.2295 223.5668 284.2324 30669.7488 1.6527 1.7350
ENERGY: 1700000 0.2750 1.8753 0.1515 0.0000 -10933.1144 1523.5407 0.0000 0.0000 1772.8437 -7634.4282 297.7755 -9407.2719 -7629.5952 300.2530 173.3048 278.3872 31187.4679 3.3260 3.2111
ENERGY: 1900000 0.5885 2.3508 0.1882 0.0000 -10745.5241 1486.9531 0.0000 0.0000 1755.2415 -7500.2020 294.8190 -9255.4435 -7498.8084 300.1707 299.2166 362.6052 31265.3941 2.4604 2.3815
TCL: Exiting due to exit command.
