Info: SIMULATION PARAMETERS:
Info: TIMESTEP               2
Info: NUMBER OF STEPS        0
Info: STEPS PER CYCLE        10
Info: PERIODIC CELL BASIS 1  41.123 0 0
Info: PERIODIC CELL BASIS 2  0 39.303 0
Info: PERIODIC CELL BASIS 3  0 0 42.009
Info: PERIODIC CELL CENTER   0 0 0
Info: WRAPPING WATERS AROUND PERIODIC BOUNDARIES ON OUTPUT.
Info: WRAPPING ALL CLUSTERS AROUND PERIODIC BOUNDARIES ON OUTPUT.
Info: FIRST LDB TIMESTEP     50
Info: LAST LDB TIMESTEP     -1
Info: HOM BACKGROUND SCALING 1
Info: PME BACKGROUND SCALING 1
Info: MIN ATOMS PER PATCH    40
Info: EMPTY PATCH LOAD       40 ATOMS
Info: INITIAL TEMPERATURE    300
Info: CENTER OF MASS MOVING INITIALLY? NO
Info: DIELECTRIC             1
Info: EXCLUDE                SCALED ONE-FOUR
Info: 1-4 ELECTROSTATICS SCALED BY 0.833333
Info: MODIFIED 1-4 VDW PARAMETERS WILL BE USED
Info: DCD FILENAME           mobley_9478823_min.dcd
Info: DCD FREQUENCY          5000
Info: DCD FIRST STEP         5000
Info: DCD FILE WILL CONTAIN UNIT CELL DATA
Info: XST FILENAME           mobley_9478823_min.xst
Info: XST FREQUENCY          5000
Info: NO VELOCITY DCD OUTPUT
Info: NO FORCE DCD OUTPUT
Info: OUTPUT FILENAME        mobley_9478823_min
Info: BINARY OUTPUT FILES WILL BE USED
Info: RESTART FILENAME       mobley_9478823_min.restart
Info: RESTART FREQUENCY      5000
Info: BINARY RESTART FILES WILL BE USED
Info: CUTOFF                 9
Info: PAIRLIST DISTANCE      11
Info: PAIRLIST SHRINK RATE   0.01
Info: PAIRLIST GROW RATE     0.01
Info: PAIRLIST TRIGGER       0.3
Info: PAIRLISTS PER CYCLE    2
Info: PAIRLISTS ENABLED
Info: MARGIN                 8
Info: HYDROGEN GROUP CUTOFF  2.5
Info: PATCH DIMENSION        21.5
Info: ENERGY OUTPUT STEPS    5000
Info: ENERGY EVALUATION STEPS    5000
Info: OUTPUT ENERGY PRECISION 4
Info: CROSSTERM ENERGY INCLUDED IN DIHEDRAL
Info: TIMING OUTPUT STEPS    50000
Info: PRESSURE OUTPUT STEPS  5000
Info: LANGEVIN DYNAMICS ACTIVE
Info: LANGEVIN TEMPERATURE   300
Info: LANGEVIN USING BBK INTEGRATOR
Info: LANGEVIN DAMPING COEFFICIENT IS 1 INVERSE PS
Info: LANGEVIN DYNAMICS APPLIED TO HYDROGENS
Info: LANGEVIN PISTON PRESSURE CONTROL ACTIVE
Info:        TARGET PRESSURE IS 1.01325 BAR
Info:     OSCILLATION PERIOD IS 50 FS
Info:             DECAY TIME IS 25 FS
Info:     PISTON TEMPERATURE IS 300 K
Info:       PRESSURE CONTROL IS GROUP-BASED
Info:    INITIAL STRAIN RATE IS 0 0 0
Info:       CELL FLUCTUATION IS ISOTROPIC
Info: PARTICLE MESH EWALD (PME) ACTIVE
Info: PME TOLERANCE               1e-06
Info: PME EWALD COEFFICIENT       0.348832
Info: PME INTERPOLATION ORDER     4
Info: PME GRID DIMENSIONS         44 40 44
Info: PME MAXIMUM GRID SPACING    1
Info: FULL ELECTROSTATIC EVALUATION FREQUENCY      2
Info: USING VERLET I (r-RESPA) MTS SCHEME.
Info: C1 SPLITTING OF LONG RANGE ELECTROSTATICS
Info: PLACING ATOMS IN PATCHES BY HYDROGEN GROUPS
Info: RIGID BONDS TO HYDROGEN : ALL
Info:         ERROR TOLERANCE : 1e-08
Info:          MAX ITERATIONS : 100
Info: RIGID WATER USING SETTLE ALGORITHM
Info: RANDOM NUMBER SEED     1741401053
Info: USE HYDROGEN BONDS?    NO
Info: Using AMBER format force field!
Info: AMBER PARM FILE        mobley_9478823.prmtop
Info: COORDINATE PDB         mobley_9478823.pdb
Info: Exclusions will be read from PARM file!
Info: SCNB (VDW SCALING)     2
Info: USING ARITHMETIC MEAN TO COMBINE L-J SIGMA PARAMETERS
Info: SUMMARY OF PARAMETERS:
Info: 6 BONDS
Info: 5 ANGLES
Info:   5 HARMONIC
Info:   0 COSINE-BASED
Info: 3 DIHEDRAL
Info: 0 IMPROPER
Info: 0 CROSSTERM
Info: 0 VDW
Info: 21 VDW_PAIRS
Info: 0 NBTHOLE_PAIRS
Info: STRUCTURE SUMMARY:
Info: 4926 ATOMS
Info: 4926 BONDS
Info: 30 ANGLES
Info: 42 DIHEDRALS
Info: 0 IMPROPERS
Info: 0 CROSSTERMS
Info: 4989 EXCLUSIONS
Info: 4918 RIGID BONDS
Info: 9860 DEGREES OF FREEDOM
Info: 1644 HYDROGEN GROUPS
Info: 4 ATOMS IN LARGEST HYDROGEN GROUP
Info: 1644 MIGRATION GROUPS
Info: 4 ATOMS IN LARGEST MIGRATION GROUP
Info: TOTAL MASS = 29580.3 amu
Info: TOTAL CHARGE = -9.99719e-05 e
Info: MASS DENSITY = 0.723452 g/cm^3
Info: ATOM DENSITY = 0.0725507 atoms/A^3
Info: ADDED 0 IMPLICIT EXCLUSIONS
Info: NONBONDED TABLE R-SQUARED SPACING: 0.0625
Info: NONBONDED TABLE SIZE: 705 POINTS
Info: REMOVING COM VELOCITY 0.109606 -0.0162405 0.0986534
TCL: Minimizing for 2000 steps
ETITLE: TS BOND ANGLE DIHED IMPRP ELECT VDW BOUNDARY MISC KINETIC TOTAL TEMP POTENTIAL TOTAL3 TEMPAVG PRESSURE GPRESSURE VOLUME PRESSAVG GPRESSAVG
ENERGY: 0 0.2483 0.2162 0.0001 0.0000 -15390.1754 1784.7840 0.0000 0.0000 0.0000 -13604.9268 0.0000 -13604.9268 -13604.9268 0.0000 11365.8036 -15644.6355 67897.3516 11365.8036 -15644.6355
ENERGY: 400 53.5503 46.6308 0.5009 0.0000 -20638.7940 3035.5018 0.0000 0.0000 0.0000 -17502.6102 0.0000 -17502.6102 -17502.6102 0.0000 15870.8995 15985.1559 67897.3516 15870.8995 15985.1559
ENERGY: 800 12.8317 6.5933 0.6474 0.0000 -21602.6429 3446.5730 0.0000 0.0000 0.0000 -18135.9975 0.0000 -18135.9975 -18135.9975 0.0000 17784.3154 17920.2813 67897.3516 17784.3154 17920.2813
ENERGY: 1200 0.5612 0.3509 0.0482 0.0000 -22065.8632 3652.7304 0.0000 0.0000 0.0000 -18412.1726 0.0000 -18412.1726 -18412.1726 0.0000 18760.5599 18873.3348 67897.3516 18760.5599 18873.3348
ENERGY: 1600 0.5767 0.3119 0.0259 0.0000 -22252.2247 3723.8309 0.0000 0.0000 0.0000 -18527.4792 0.0000 -18527.4792 -18527.4792 0.0000 19161.4525 19269.6019 67897.3516 19161.4525 19269.6019
ENERGY: 2000 0.4702 0.2919 0.0362 0.0000 -22425.1311 3816.5888 0.0000 0.0000 0.0000 -18607.7439 0.0000 -18607.7439 -18607.7439 0.0000 19632.3569 19725.6270 67897.3516 19632.3569 19725.6270
TCL: Exiting due to exit command.
Info: NAMD 3.0.1 for Linux-x86_64-multicore
Info: Please visit http://www.ks.uiuc.edu/Research/namd/
Info: for updates, documentation, and support information.
Info: Please cite Phillips et al., J. Chem. Phys. 153:044130 (2020) doi:10.1063/5.0014475
Info: in all publications reporting results obtained with NAMD.
Info: Based on Charm++/Converse 80000 for multicore-linux-x86_64-gcc
Info: Built Mon Oct 14 11:11:06 CDT 2024 by dhardy on athine.ks.uiuc.edu
Info: 1 NAMD  3.0.1  Linux-x86_64-multicore  16    k012  z5358697
Info: Running on 16 processors, 1 nodes, 1 physical nodes.
Info: CPU topology information available.
Info: Charm++/Converse parallel runtime startup completed at 0.0134528 s
Info: 1043.45 MB of memory in use based on /proc/self/stat
Info: Configuration file is mobley_9478823_equil.namd
Info: Working in the current directory /srv/scratch/z5358697/prod_prep_12/9478823
TCL: Running 25000 steps at 30 kelvin.
TCL: Suspending until startup complete.
Info: SIMULATION PARAMETERS:
Info: TIMESTEP               2
Info: NUMBER OF STEPS        0
Info: STEPS PER CYCLE        10
Info: PERIODIC CELL BASIS 1  41.123 0 0
Info: PERIODIC CELL BASIS 2  0 39.303 0
Info: PERIODIC CELL BASIS 3  0 0 42.009
Info: PERIODIC CELL CENTER   0 0 0
Info: WRAPPING WATERS AROUND PERIODIC BOUNDARIES ON OUTPUT.
Info: WRAPPING ALL CLUSTERS AROUND PERIODIC BOUNDARIES ON OUTPUT.
Info: FIRST LDB TIMESTEP     50
Info: LAST LDB TIMESTEP     -1
Info: HOM BACKGROUND SCALING 1
Info: PME BACKGROUND SCALING 1
Info: MIN ATOMS PER PATCH    40
Info: EMPTY PATCH LOAD       40 ATOMS
Info: INITIAL TEMPERATURE    300
Info: CENTER OF MASS MOVING INITIALLY? NO
Info: DIELECTRIC             1
Info: EXCLUDE                SCALED ONE-FOUR
Info: 1-4 ELECTROSTATICS SCALED BY 0.833333
Info: MODIFIED 1-4 VDW PARAMETERS WILL BE USED
Info: DCD FILENAME           mobley_9478823_equil.dcd
Info: DCD FREQUENCY          5000
Info: DCD FIRST STEP         5000
Info: DCD FILE WILL CONTAIN UNIT CELL DATA
Info: XST FILENAME           mobley_9478823_equil.xst
Info: XST FREQUENCY          5000
Info: NO VELOCITY DCD OUTPUT
Info: NO FORCE DCD OUTPUT
Info: OUTPUT FILENAME        mobley_9478823_equil
Info: BINARY OUTPUT FILES WILL BE USED
Info: RESTART FILENAME       mobley_9478823_equil.restart
Info: RESTART FREQUENCY      5000
Info: BINARY RESTART FILES WILL BE USED
Info: CUTOFF                 9
Info: PAIRLIST DISTANCE      11
Info: PAIRLIST SHRINK RATE   0.01
Info: PAIRLIST GROW RATE     0.01
Info: PAIRLIST TRIGGER       0.3
Info: PAIRLISTS PER CYCLE    2
Info: PAIRLISTS ENABLED
Info: MARGIN                 8
Info: HYDROGEN GROUP CUTOFF  2.5
Info: PATCH DIMENSION        21.5
Info: ENERGY OUTPUT STEPS    5000
Info: ENERGY EVALUATION STEPS    5000
Info: OUTPUT ENERGY PRECISION 4
Info: CROSSTERM ENERGY INCLUDED IN DIHEDRAL
Info: TIMING OUTPUT STEPS    50000
Info: PRESSURE OUTPUT STEPS  5000
Info: LANGEVIN DYNAMICS ACTIVE
Info: LANGEVIN TEMPERATURE   30
Info: LANGEVIN USING BBK INTEGRATOR
Info: LANGEVIN DAMPING COEFFICIENT IS 1 INVERSE PS
Info: LANGEVIN DYNAMICS APPLIED TO HYDROGENS
Info: LANGEVIN PISTON PRESSURE CONTROL ACTIVE
Info:        TARGET PRESSURE IS 1.01325 BAR
Info:     OSCILLATION PERIOD IS 50 FS
Info:             DECAY TIME IS 25 FS
Info:     PISTON TEMPERATURE IS 300 K
Info:       PRESSURE CONTROL IS GROUP-BASED
Info:    INITIAL STRAIN RATE IS 0 0 0
Info:       CELL FLUCTUATION IS ISOTROPIC
Info: PARTICLE MESH EWALD (PME) ACTIVE
Info: PME TOLERANCE               1e-06
Info: PME EWALD COEFFICIENT       0.348832
Info: PME INTERPOLATION ORDER     4
Info: PME GRID DIMENSIONS         44 40 44
Info: PME MAXIMUM GRID SPACING    1
Info: FULL ELECTROSTATIC EVALUATION FREQUENCY      2
Info: USING VERLET I (r-RESPA) MTS SCHEME.
Info: C1 SPLITTING OF LONG RANGE ELECTROSTATICS
Info: PLACING ATOMS IN PATCHES BY HYDROGEN GROUPS
Info: RIGID BONDS TO HYDROGEN : ALL
Info:         ERROR TOLERANCE : 1e-08
Info:          MAX ITERATIONS : 100
Info: RIGID WATER USING SETTLE ALGORITHM
Info: RANDOM NUMBER SEED     1741401068
Info: USE HYDROGEN BONDS?    NO
Info: Using AMBER format force field!
Info: AMBER PARM FILE        mobley_9478823.prmtop
Info: COORDINATE PDB         mobley_9478823.pdb
Info: Exclusions will be read from PARM file!
Info: SCNB (VDW SCALING)     2
Info: USING ARITHMETIC MEAN TO COMBINE L-J SIGMA PARAMETERS
Info: BINARY COORDINATES     mobley_9478823_min.coor
Info: SUMMARY OF PARAMETERS:
Info: 6 BONDS
Info: 5 ANGLES
Info:   5 HARMONIC
Info:   0 COSINE-BASED
Info: 3 DIHEDRAL
Info: 0 IMPROPER
Info: 0 CROSSTERM
Info: 0 VDW
Info: 21 VDW_PAIRS
Info: 0 NBTHOLE_PAIRS
Info: STRUCTURE SUMMARY:
Info: 4926 ATOMS
Info: 4926 BONDS
Info: 30 ANGLES
Info: 42 DIHEDRALS
Info: 0 IMPROPERS
Info: 0 CROSSTERMS
Info: 4989 EXCLUSIONS
Info: 4918 RIGID BONDS
Info: 9860 DEGREES OF FREEDOM
Info: 1644 HYDROGEN GROUPS
Info: 4 ATOMS IN LARGEST HYDROGEN GROUP
Info: 1644 MIGRATION GROUPS
Info: 4 ATOMS IN LARGEST MIGRATION GROUP
Info: TOTAL MASS = 29580.3 amu
Info: TOTAL CHARGE = -9.99719e-05 e
Info: MASS DENSITY = 0.723452 g/cm^3
Info: ATOM DENSITY = 0.0725507 atoms/A^3
Info: ADDED 0 IMPLICIT EXCLUSIONS
Info: NONBONDED TABLE R-SQUARED SPACING: 0.0625
Info: NONBONDED TABLE SIZE: 705 POINTS
Info: REMOVING COM VELOCITY -0.0236988 -0.00279486 0.0310306
TCL: Running for 25000 steps
ETITLE: TS BOND ANGLE DIHED IMPRP ELECT VDW BOUNDARY MISC KINETIC TOTAL TEMP POTENTIAL TOTAL3 TEMPAVG PRESSURE GPRESSURE VOLUME PRESSAVG GPRESSAVG
ENERGY: 0 0.4702 0.2919 0.0362 0.0000 -22425.1311 3816.5888 0.0000 0.0000 2929.0886 -15678.6553 298.9826 -18607.7439 -15678.0508 298.9826 -90.4119 -51.2742 67897.3516 -90.4119 -51.2742
ENERGY: 5000 0.4252 1.0984 0.9215 0.0000 -23664.4257 4122.6628 0.0000 0.0000 286.9329 -19252.3849 29.2883 -19539.3178 -19251.7942 48.1149 66.2673 108.9209 48047.7233 1.1864 1.4592
ENERGY: 10000 0.5574 0.7773 0.5169 0.0000 -23593.0483 4014.1869 0.0000 0.0000 292.0422 -19284.9676 29.8098 -19577.0098 -19284.2139 30.3235 -488.2555 -444.6913 48003.4625 0.9035 0.9470
ENERGY: 15000 0.3433 0.6437 0.2057 0.0000 -23676.6567 4083.0263 0.0000 0.0000 293.3157 -19299.1220 29.9398 -19592.4378 -19298.5755 30.1354 -152.8406 -91.8309 47945.8354 3.4746 3.6777
ENERGY: 20000 0.4689 0.6796 0.2709 0.0000 -23765.2378 4150.7426 0.0000 0.0000 296.1210 -19316.9548 30.2261 -19613.0758 -19316.1195 30.0226 215.7948 248.5544 47622.8853 5.9510 5.9403
ENERGY: 25000 0.3633 0.6439 0.2640 0.0000 -23808.0650 4186.5005 0.0000 0.0000 295.9925 -19324.3008 30.2130 -19620.2933 -19323.3637 29.8787 458.7034 495.1309 47571.7191 9.1597 9.1284
TCL: Running 25000 steps at 60 kelvin.
TCL: Setting parameter langevinTemp to 60
TCL: Running for 25000 steps
ETITLE: TS BOND ANGLE DIHED IMPRP ELECT VDW BOUNDARY MISC KINETIC TOTAL TEMP POTENTIAL TOTAL3 TEMPAVG PRESSURE GPRESSURE VOLUME PRESSAVG GPRESSAVG
ENERGY: 25000 0.3633 0.6439 0.2640 0.0000 -23808.0650 4186.5005 0.0000 0.0000 295.8471 -19324.4462 30.1982 -19620.2933 -19323.7440 30.1982 441.0513 495.3043 47571.7191 441.0513 495.3043
ENERGY: 30000 0.5410 1.8806 0.4247 0.0000 -23447.6259 4100.4136 0.0000 0.0000 592.5916 -18751.7745 60.4880 -19344.3661 -18750.3105 56.9530 558.0410 626.1930 47741.9002 2.8713 2.7470
ENERGY: 35000 0.5847 0.8375 1.0717 0.0000 -23212.1846 3840.2640 0.0000 0.0000 591.4170 -18778.0096 60.3681 -19369.4266 -18776.0730 60.3285 -812.6168 -750.7190 48046.1227 0.9657 1.3199
ENERGY: 40000 0.8098 1.2055 0.2754 0.0000 -23136.1115 3766.7715 0.0000 0.0000 574.4960 -18792.5532 58.6409 -19367.0493 -18791.3450 59.7659 -1194.1810 -1157.7809 48152.9850 5.8399 5.5456
ENERGY: 45000 0.4392 1.4805 0.2606 0.0000 -23463.7200 4071.1973 0.0000 0.0000 584.3077 -18806.0347 59.6424 -19390.3424 -18804.2731 60.0414 364.8958 401.1717 47612.5679 3.4027 3.4324
ENERGY: 50000 0.3188 1.2733 0.5424 0.0000 -23419.9625 4005.1314 0.0000 0.0000 582.1435 -18830.5530 59.4215 -19412.6965 -18829.0155 60.0408 -143.9831 -85.0313 47908.5113 -0.7096 -0.8898
TCL: Running 25000 steps at 90 kelvin.
TCL: Setting parameter langevinTemp to 90
TCL: Running for 25000 steps
ETITLE: TS BOND ANGLE DIHED IMPRP ELECT VDW BOUNDARY MISC KINETIC TOTAL TEMP POTENTIAL TOTAL3 TEMPAVG PRESSURE GPRESSURE VOLUME PRESSAVG GPRESSAVG
ENERGY: 50000 0.3188 1.2733 0.5424 0.0000 -23419.9625 4005.1314 0.0000 0.0000 581.8557 -18830.8408 59.3921 -19412.6965 -18829.4071 59.3921 -132.7162 -84.9134 47908.5113 -132.7162 -84.9134
ENERGY: 55000 1.8870 0.9330 0.6404 0.0000 -23043.2183 3913.9905 0.0000 0.0000 884.6652 -18241.1021 90.3010 -19125.7673 -18238.6701 87.1583 55.7979 136.7432 47940.2275 2.8979 3.0384
ENERGY: 60000 1.1785 2.1377 1.6714 0.0000 -23032.4734 3828.4056 0.0000 0.0000 874.7977 -18324.2826 89.2938 -19199.0803 -18322.0498 89.8984 -391.2370 -347.4860 47888.6531 5.3964 4.8168
ENERGY: 65000 0.4413 1.5859 0.3152 0.0000 -23230.3619 4006.2793 0.0000 0.0000 896.1762 -18325.5638 91.4759 -19221.7401 -18323.9560 90.1042 477.0856 566.9748 47614.8304 4.2769 4.5244
ENERGY: 70000 1.1103 1.1725 0.5871 0.0000 -23236.5385 3974.3699 0.0000 0.0000 910.5144 -18348.7843 92.9395 -19259.2987 -18345.7142 90.0771 318.2838 333.7199 47440.6430 5.8588 5.6300
ENERGY: 75000 1.4580 1.5178 0.5051 0.0000 -23315.7952 4047.3039 0.0000 0.0000 893.9674 -18371.0430 91.2505 -19265.0104 -18368.1650 90.0641 576.0955 631.0457 47407.8579 4.7779 4.5812
TCL: Running 25000 steps at 120 kelvin.
TCL: Setting parameter langevinTemp to 120
TCL: Running for 25000 steps
ETITLE: TS BOND ANGLE DIHED IMPRP ELECT VDW BOUNDARY MISC KINETIC TOTAL TEMP POTENTIAL TOTAL3 TEMPAVG PRESSURE GPRESSURE VOLUME PRESSAVG GPRESSAVG
ENERGY: 75000 1.4580 1.5178 0.5051 0.0000 -23315.7952 4047.3039 0.0000 0.0000 893.5390 -18371.4713 91.2068 -19265.0104 -18369.7714 91.2068 576.2049 631.6385 47407.8579 576.2049 631.6385
ENERGY: 80000 0.9128 2.2018 1.1447 0.0000 -22716.0825 3764.7772 0.0000 0.0000 1183.9094 -17763.1366 120.8459 -18947.0460 -17759.4837 117.2084 108.8760 149.8779 47641.0849 1.0809 1.5648
ENERGY: 85000 1.1830 3.3005 0.5364 0.0000 -22724.1990 3755.1270 0.0000 0.0000 1217.5900 -17746.4621 124.2838 -18964.0522 -17742.8484 120.7677 -202.2663 -158.4854 47872.5757 6.1719 6.2347
ENERGY: 90000 1.1831 2.3627 1.3021 0.0000 -22641.1788 3678.3939 0.0000 0.0000 1180.7089 -17777.2280 120.5192 -18957.9370 -17775.9811 121.2277 -609.8771 -541.0989 47917.2458 4.2732 4.7554
ENERGY: 95000 0.6146 1.9335 2.8378 0.0000 -22694.0904 3690.2376 0.0000 0.0000 1197.6008 -17800.8660 122.2434 -18998.4669 -17797.5681 119.9055 -569.0593 -485.4823 47783.6807 0.1748 -0.4285
ENERGY: 100000 1.7133 1.9680 0.6241 0.0000 -22807.2480 3763.6003 0.0000 0.0000 1177.3357 -17862.0065 120.1749 -19039.3422 -17860.4400 120.8223 -304.7381 -242.4145 47618.1325 6.2132 6.0344
TCL: Running 25000 steps at 150 kelvin.
TCL: Setting parameter langevinTemp to 150
TCL: Running for 25000 steps
ETITLE: TS BOND ANGLE DIHED IMPRP ELECT VDW BOUNDARY MISC KINETIC TOTAL TEMP POTENTIAL TOTAL3 TEMPAVG PRESSURE GPRESSURE VOLUME PRESSAVG GPRESSAVG
ENERGY: 100000 1.7133 1.9680 0.6241 0.0000 -22807.2480 3763.6003 0.0000 0.0000 1176.7626 -17862.5796 120.1164 -19039.3422 -17860.1971 120.1164 -299.9130 -243.6559 47618.1325 -299.9130 -243.6559
ENERGY: 105000 0.8237 1.4311 2.8468 0.0000 -22399.5471 3739.9514 0.0000 0.0000 1473.1488 -17181.3453 150.3696 -18654.4942 -17178.4035 147.1534 470.1384 496.6173 47748.5303 4.8777 4.9805
ENERGY: 110000 0.7095 2.2830 1.0229 0.0000 -22397.9443 3675.8230 0.0000 0.0000 1509.5756 -17208.5302 154.0878 -18718.1058 -17204.4798 150.4343 5.4435 55.7689 47911.5546 2.7313 2.5669
ENERGY: 115000 2.6777 2.6167 1.4334 0.0000 -22365.8598 3659.2776 0.0000 0.0000 1479.7520 -17220.1024 151.0436 -18699.8544 -17217.6860 150.0069 -111.1078 -61.4374 47998.0875 2.6322 2.4830
ENERGY: 120000 1.1921 3.1776 1.6867 0.0000 -22366.3480 3622.1862 0.0000 0.0000 1469.8412 -17268.2641 150.0320 -18738.1053 -17265.6508 149.8686 -479.9977 -433.6681 48319.7512 1.6922 1.9732
ENERGY: 125000 0.5752 3.8697 1.0693 0.0000 -22476.8046 3726.8612 0.0000 0.0000 1456.7220 -17287.7072 148.6929 -18744.4293 -17283.8662 149.7051 -50.0120 34.3795 48345.3795 4.5101 4.6893
TCL: Running 50000 steps at 180 kelvin.
TCL: Setting parameter langevinTemp to 180
TCL: Running for 50000 steps
ETITLE: TS BOND ANGLE DIHED IMPRP ELECT VDW BOUNDARY MISC KINETIC TOTAL TEMP POTENTIAL TOTAL3 TEMPAVG PRESSURE GPRESSURE VOLUME PRESSAVG GPRESSAVG
ENERGY: 125000 0.5752 3.8697 1.0693 0.0000 -22476.8046 3726.8612 0.0000 0.0000 1456.0007 -17288.4286 148.6192 -18744.4293 -17285.3497 148.6192 -21.7964 34.1567 48345.3795 -21.7964 34.1567
ENERGY: 135000 1.2016 6.3567 0.4929 0.0000 -21576.5734 3299.1171 0.0000 0.0000 1776.5343 -16492.8707 181.3373 -18269.4050 -16488.3966 180.0166 -1206.4273 -1159.3971 49097.8731 3.7358 3.7089
ENERGY: 145000 2.5061 4.0732 3.0914 0.0000 -21996.6532 3673.0043 0.0000 0.0000 1775.5364 -16538.4417 181.2354 -18313.9781 -16534.7747 178.9784 660.3006 719.9312 48360.3192 0.4294 0.9212
ENERGY: 155000 2.3677 3.6549 0.7886 0.0000 -21841.1612 3525.6712 0.0000 0.0000 1788.7764 -16519.9024 182.5869 -18308.6788 -16514.7471 178.4690 -287.1513 -215.1361 48891.0486 2.3585 2.9148
ENERGY: 165000 1.2393 3.7882 1.6070 0.0000 -21839.4461 3548.5930 0.0000 0.0000 1734.9777 -16549.2410 177.0954 -18284.2187 -16543.5969 180.9119 40.6839 118.6880 48323.8220 2.8580 3.1829
ENERGY: 175000 4.8914 2.8657 0.6997 0.0000 -21798.2861 3520.4649 0.0000 0.0000 1763.1739 -16506.1906 179.9735 -18269.3645 -16502.9996 180.3655 -37.0852 21.6717 48222.8860 1.3716 1.6176
TCL: Running 50000 steps at 210 kelvin.
TCL: Setting parameter langevinTemp to 210
TCL: Running for 50000 steps
ETITLE: TS BOND ANGLE DIHED IMPRP ELECT VDW BOUNDARY MISC KINETIC TOTAL TEMP POTENTIAL TOTAL3 TEMPAVG PRESSURE GPRESSURE VOLUME PRESSAVG GPRESSAVG
ENERGY: 175000 4.8914 2.8657 0.6997 0.0000 -21798.2861 3520.4649 0.0000 0.0000 1762.3186 -16507.0459 179.8862 -18269.3645 -16503.5145 179.8862 -32.5623 19.9954 48222.8860 -32.5623 19.9954
ENERGY: 185000 3.6767 4.8207 1.4029 0.0000 -20943.6084 3282.5759 0.0000 0.0000 1999.7431 -15651.3890 204.1210 -17651.1322 -15646.7893 210.1839 161.2293 258.2042 48499.2019 -0.0091 0.4873
ENERGY: 195000 2.3705 2.8702 0.9489 0.0000 -20788.7440 3165.3145 0.0000 0.0000 2044.8091 -15572.4309 208.7210 -17617.2400 -15566.2612 211.6618 -208.8973 -139.4455 48196.1911 3.3876 3.3424
ENERGY: 205000 1.7668 2.8375 1.0045 0.0000 -20672.8804 3118.3414 0.0000 0.0000 2115.9223 -15433.0078 215.9798 -17548.9301 -15427.3631 211.6590 -111.4687 -38.3331 47867.6781 10.3593 11.1212
ENERGY: 215000 1.8810 4.5354 1.1154 0.0000 -20684.5528 3033.3706 0.0000 0.0000 2015.0650 -15628.5854 205.6850 -17643.6504 -15623.9300 210.1550 -853.5651 -773.3430 48170.5660 8.7632 8.6919
ENERGY: 225000 2.4842 6.1273 2.5182 0.0000 -20878.8261 3278.5216 0.0000 0.0000 2065.7339 -15523.4410 210.8569 -17589.1749 -15520.0228 210.0272 284.2548 391.9550 48250.9476 5.3784 5.1280
TCL: Running 50000 steps at 240 kelvin.
TCL: Setting parameter langevinTemp to 240
TCL: Running for 50000 steps
ETITLE: TS BOND ANGLE DIHED IMPRP ELECT VDW BOUNDARY MISC KINETIC TOTAL TEMP POTENTIAL TOTAL3 TEMPAVG PRESSURE GPRESSURE VOLUME PRESSAVG GPRESSAVG
ENERGY: 225000 2.4842 6.1273 2.5182 0.0000 -20878.8261 3278.5216 0.0000 0.0000 2064.7228 -15524.4521 210.7537 -17589.1749 -15521.2037 210.7537 308.7672 391.4459 48250.9476 308.7672 391.4459
ENERGY: 235000 1.8319 4.8158 0.7290 0.0000 -19597.3375 2755.0716 0.0000 0.0000 2336.8712 -14498.0181 238.5329 -16834.8893 -14490.8541 240.0251 -866.5725 -757.5264 49247.7047 1.7587 1.9003
ENERGY: 245000 2.0251 2.5866 2.4553 0.0000 -19854.3743 2934.7784 0.0000 0.0000 2361.1236 -14551.4053 241.0084 -16912.5289 -14545.9816 240.4353 110.0681 199.3686 48429.0728 6.2398 5.6639
ENERGY: 255000 1.0956 3.9817 2.1150 0.0000 -19693.9696 2835.0193 0.0000 0.0000 2370.6828 -14481.0752 241.9842 -16851.7580 -14476.0599 240.4735 -235.3687 -116.6974 48530.6571 -0.1033 -0.7026
ENERGY: 265000 1.9753 2.8925 1.9848 0.0000 -19675.4290 2802.7260 0.0000 0.0000 2321.9713 -14543.8791 237.0120 -16865.8505 -14538.8995 238.7106 -535.1134 -450.6454 48895.9437 0.9188 1.3808
ENERGY: 275000 1.4974 3.8931 1.2501 0.0000 -19620.0529 2793.6214 0.0000 0.0000 2378.6124 -14441.1784 242.7936 -16819.7909 -14435.5793 238.3708 -322.0843 -254.7221 48717.4721 2.3658 2.3814
TCL: Running 50000 steps at 270 kelvin.
TCL: Setting parameter langevinTemp to 270
TCL: Running for 50000 steps
ETITLE: TS BOND ANGLE DIHED IMPRP ELECT VDW BOUNDARY MISC KINETIC TOTAL TEMP POTENTIAL TOTAL3 TEMPAVG PRESSURE GPRESSURE VOLUME PRESSAVG GPRESSAVG
ENERGY: 275000 1.4974 3.8931 1.2501 0.0000 -19620.0529 2793.6214 0.0000 0.0000 2377.4459 -14442.3450 242.6745 -16819.7909 -14437.9011 242.6745 -325.8971 -254.9651 48717.4721 -325.8971 -254.9651
ENERGY: 285000 1.1056 2.7959 1.9981 0.0000 -18798.2400 2653.2247 0.0000 0.0000 2579.8384 -13559.2774 263.3334 -16139.1157 -13552.5193 269.7820 261.9574 360.5525 49002.5991 0.5794 0.7224
ENERGY: 295000 2.9037 3.2335 1.9242 0.0000 -18757.5187 2600.6398 0.0000 0.0000 2660.3409 -13488.4766 271.5506 -16148.8175 -13480.3874 268.7938 -74.2126 42.9499 49169.4904 5.1888 4.8223
ENERGY: 305000 2.1684 2.3782 2.0696 0.0000 -18947.3968 2666.4918 0.0000 0.0000 2652.7169 -13621.5719 270.7724 -16274.2887 -13613.2085 269.7197 13.5320 28.0524 49332.0971 -2.0452 -1.3784
ENERGY: 315000 2.3675 7.0853 1.5078 0.0000 -18677.1142 2543.6904 0.0000 0.0000 2615.9715 -13506.4918 267.0217 -16122.4633 -13498.5035 270.5292 -397.1158 -323.7153 49626.9428 0.7247 0.3706
ENERGY: 325000 1.6262 8.0756 2.0628 0.0000 -18883.7548 2689.8249 0.0000 0.0000 2663.5601 -13518.6052 271.8792 -16182.1653 -13512.9316 271.8012 131.7033 221.3263 49334.5161 2.4916 2.3081
TCL: Running 1000000 steps at 300 kelvin.
TCL: Setting parameter langevinTemp to 300
TCL: Running for 1000000 steps
ETITLE: TS BOND ANGLE DIHED IMPRP ELECT VDW BOUNDARY MISC KINETIC TOTAL TEMP POTENTIAL TOTAL3 TEMPAVG PRESSURE GPRESSURE VOLUME PRESSAVG GPRESSAVG
ENERGY: 325000 1.6262 8.0756 2.0628 0.0000 -18883.7548 2689.8249 0.0000 0.0000 2662.2585 -13519.9068 271.7463 -16182.1653 -13515.6807 271.7463 124.4446 219.6943 49334.5161 124.4446 219.6943
ENERGY: 525000 1.3822 2.9169 0.7628 0.0000 -17912.5779 2376.0691 0.0000 0.0000 2919.6540 -12611.7930 298.0196 -15531.4470 -12607.6500 298.3180 -337.4085 -218.3672 50621.0391 0.4736 0.0856
ENERGY: 725000 2.2854 7.7327 3.6443 0.0000 -17978.6646 2450.6839 0.0000 0.0000 2969.9957 -12544.3227 303.1582 -15514.3183 -12539.1977 300.3170 105.8113 144.9008 50691.4872 2.7263 2.3760
ENERGY: 925000 1.3483 5.2026 1.9794 0.0000 -17876.8455 2441.8374 0.0000 0.0000 3002.9843 -12423.4935 306.5254 -15426.4778 -12417.9320 300.7908 286.0128 370.9995 50659.4576 5.6871 5.5057
ENERGY: 1125000 3.1430 5.3442 5.2429 0.0000 -17802.7230 2379.4519 0.0000 0.0000 2942.5142 -12467.0269 300.3530 -15409.5410 -12462.8961 301.5573 -19.4605 69.8190 50578.4084 0.2808 0.3796
ENERGY: 1325000 3.7398 3.1005 1.6504 0.0000 -17856.3689 2371.4505 0.0000 0.0000 2927.4642 -12548.9635 298.8168 -15476.4277 -12544.4088 300.1050 -158.1979 -70.6558 50468.8067 1.5599 2.0289
TCL: Exiting due to exit command.
