Info: SIMULATION PARAMETERS:
Info: TIMESTEP               2
Info: NUMBER OF STEPS        0
Info: STEPS PER CYCLE        10
Info: PERIODIC CELL BASIS 1  32.1378 0 0
Info: PERIODIC CELL BASIS 2  0 31.4835 0
Info: PERIODIC CELL BASIS 3  0 0 30.4585
Info: PERIODIC CELL CENTER   0 0 0
Info: WRAPPING WATERS AROUND PERIODIC BOUNDARIES ON OUTPUT.
Info: WRAPPING ALL CLUSTERS AROUND PERIODIC BOUNDARIES ON OUTPUT.
Info: FIRST LDB TIMESTEP     50
Info: LAST LDB TIMESTEP     -1
Info: HOM BACKGROUND SCALING 1
Info: PME BACKGROUND SCALING 1
Info: MIN ATOMS PER PATCH    40
Info: EMPTY PATCH LOAD       40 ATOMS
Info: VELOCITY FILE          mobley_8885088_equil.vel
Info: CENTER OF MASS MOVING INITIALLY? NO
Info: DIELECTRIC             1
Info: EXCLUDE                SCALED ONE-FOUR
Info: 1-4 ELECTROSTATICS SCALED BY 0.833333
Info: MODIFIED 1-4 VDW PARAMETERS WILL BE USED
Info: DCD FILENAME           mobley_8885088_prod.dcd
Info: DCD FREQUENCY          100000
Info: DCD FIRST STEP         100000
Info: DCD FILE WILL CONTAIN UNIT CELL DATA
Info: XST FILENAME           mobley_8885088_prod.xst
Info: XST FREQUENCY          100000
Info: NO VELOCITY DCD OUTPUT
Info: NO FORCE DCD OUTPUT
Info: OUTPUT FILENAME        mobley_8885088_prod
Info: BINARY OUTPUT FILES WILL BE USED
Info: RESTART FILENAME       mobley_8885088_prod.restart
Info: RESTART FREQUENCY      100000
Info: BINARY RESTART FILES WILL BE USED
Info: CUTOFF                 9
Info: PAIRLIST DISTANCE      11
Info: PAIRLIST SHRINK RATE   0.01
Info: PAIRLIST GROW RATE     0.01
Info: PAIRLIST TRIGGER       0.3
Info: PAIRLISTS PER CYCLE    2
Info: PAIRLISTS ENABLED
Info: MARGIN                 2
Info: HYDROGEN GROUP CUTOFF  2.5
Info: PATCH DIMENSION        15.5
Info: ENERGY OUTPUT STEPS    100000
Info: ENERGY EVALUATION STEPS    100000
Info: OUTPUT ENERGY PRECISION 4
Info: CROSSTERM ENERGY INCLUDED IN DIHEDRAL
Info: TIMING OUTPUT STEPS    1000000
Info: PRESSURE OUTPUT STEPS  100000
Info: ALCHEMICAL FEP ON
Info: FEP CURRENT LAMBDA VALUE     1
Info: FEP COMPARISON LAMBDA VALUE  0.95
Info: FEP INTRA-ALCHEMICAL NON-BONDED INTERACTIONS WILL BE RETAINED
Info: FEP INTRA-ALCHEMICAL BONDED INTERACTIONS WILL BE RETAINED
Info: FEP VDW SHIFTING COEFFICIENT 5
Info: FEP ELEC. ACTIVE FOR ANNIHILATED PARTICLES BETWEEN LAMBDA = 0 AND LAMBDA = 0.5
Info: FEP ELEC. ACTIVE FOR EXNIHILATED PARTICLES BETWEEN LAMBDA = 0.5 AND LAMBDA = 1
Info: FEP VDW ACTIVE FOR ANNIHILATED PARTICLES BETWEEN LAMBDA = 0 AND LAMBDA = 1
Info: FEP VDW ACTIVE FOR EXNIHILATED PARTICLES BETWEEN LAMBDA = 0 AND LAMBDA = 1
Info: FEP BOND ACTIVE FOR ANNIHILATED PARTICLES BETWEEN LAMBDA = 1 AND LAMBDA = 1
Info: FEP BOND ACTIVE FOR EXNIHILATED PARTICLES BETWEEN LAMBDA = 0 AND LAMBDA = 0
Info: LANGEVIN DYNAMICS ACTIVE
Info: LANGEVIN TEMPERATURE   300
Info: LANGEVIN USING BBK INTEGRATOR
Info: LANGEVIN DAMPING COEFFICIENT IS 1 INVERSE PS
Info: LANGEVIN DYNAMICS APPLIED TO HYDROGENS
Info: LANGEVIN PISTON PRESSURE CONTROL ACTIVE
Info:        TARGET PRESSURE IS 1.01325 BAR
Info:     OSCILLATION PERIOD IS 50 FS
Info:             DECAY TIME IS 25 FS
Info:     PISTON TEMPERATURE IS 300 K
Info:       PRESSURE CONTROL IS GROUP-BASED
Info:    INITIAL STRAIN RATE IS -8.03796e-05 -8.03796e-05 -8.03796e-05
Info:       CELL FLUCTUATION IS ISOTROPIC
Info: PARTICLE MESH EWALD (PME) ACTIVE
Info: PME TOLERANCE               1e-06
Info: PME EWALD COEFFICIENT       0.348832
Info: PME INTERPOLATION ORDER     4
Info: PME GRID DIMENSIONS         36 32 32
Info: PME MAXIMUM GRID SPACING    1
Info: PME CALCULATION WILL BE PERFORMED ON GPU
Info: FULL ELECTROSTATIC EVALUATION FREQUENCY      2
Info: USING VERLET I (r-RESPA) MTS SCHEME.
Info: C1 SPLITTING OF LONG RANGE ELECTROSTATICS
Info: PLACING ATOMS IN PATCHES BY HYDROGEN GROUPS
Info: RIGID BONDS TO HYDROGEN : ALL
Info:         ERROR TOLERANCE : 1e-08
Info:          MAX ITERATIONS : 100
Info: RIGID WATER USING SETTLE ALGORITHM
Info: RANDOM NUMBER SEED     1742238506
Info: USE HYDROGEN BONDS?    NO
Info: Using AMBER format force field!
Info: AMBER PARM FILE        mobley_8885088.prmtop
Info: COORDINATE PDB         mobley_8885088.pdb
Info: Exclusions will be read from PARM file!
Info: SCNB (VDW SCALING)     2
Info: USING ARITHMETIC MEAN TO COMBINE L-J SIGMA PARAMETERS
Info: BINARY COORDINATES     mobley_8885088_equil.coor
Info: SUMMARY OF PARAMETERS:
Info: 7 BONDS
Info: 8 ANGLES
Info:   8 HARMONIC
Info:   0 COSINE-BASED
Info: 9 DIHEDRAL
Info: 0 IMPROPER
Info: 0 CROSSTERM
Info: 0 VDW
Info: 21 VDW_PAIRS
Info: 0 NBTHOLE_PAIRS
Info: To read alchdata from file: mobley_8885088.pdb
Info: To read alchflag data from column: 5
Info: STRUCTURE SUMMARY:
Info: 2983 ATOMS
Info: 2983 BONDS
Info: 24 ANGLES
Info: 36 DIHEDRALS
Info: 0 IMPROPERS
Info: 0 CROSSTERMS
Info: 3036 EXCLUSIONS
Info: 2978 RIGID BONDS
Info: ALCH: 0 ATOMS TO DISAPPEAR IN FINAL STATE
Info: ALCH: 13 ATOMS TO APPEAR IN FINAL STATE
Info: 5971 DEGREES OF FREEDOM
Info: 995 HYDROGEN GROUPS
Info: 3 ATOMS IN LARGEST HYDROGEN GROUP
Info: 995 MIGRATION GROUPS
Info: 3 ATOMS IN LARGEST MIGRATION GROUP
Info: TOTAL MASS = 17904 amu
Info: TOTAL CHARGE = -0.000200003 e
Info: MASS DENSITY = 0.964719 g/cm^3
Info: ATOM DENSITY = 0.0967934 atoms/A^3
Info: ADDED 0 IMPLICIT EXCLUSIONS
Info: NONBONDED TABLE R-SQUARED SPACING: 0.0625
Info: NONBONDED TABLE SIZE: 705 POINTS
Info: REMOVING COM VELOCITY 0.120569 -0.0688471 -0.198164
Info: Use 3D box decompostion in PME FFT.
Info: Updated CUDA force table with 4096 elements.
Info: Updated CUDA LJ table with 6 x 6 elements.
Info: Found 15 unique exclusion lists needing 32 bytes
TCL: Running for 1500000 steps
ETITLE: TS BOND ANGLE DIHED IMPRP ELECT VDW BOUNDARY MISC KINETIC TOTAL TEMP POTENTIAL TOTALAVG TEMPAVG PRESSURE GPRESSURE VOLUME PRESSAVG GPRESSAVG
ENERGY: 0 2.4502 15.1761 5.8969 0.0000 -10775.7945 1415.7106 0.0000 0.0000 1801.0740 -7535.4868 303.5812 -9336.5608 -7535.4868 303.5812 -513.5657 -412.5164 30818.2048 -513.5657 -412.5164
ENERGY: 300000 1.2221 13.6538 5.5917 0.0000 -10733.6370 1424.1488 0.0000 0.0000 1763.3889 -7525.6317 297.2292 -9289.0206 -7534.8959 302.0670 124.4011 213.2303 30292.1090 -32.0361 66.7364
ENERGY: 600000 2.1420 14.7647 5.2871 0.0000 -10932.2387 1528.3940 0.0000 0.0000 1793.5177 -7588.1332 302.3075 -9381.6508 -7534.2137 301.1411 221.9240 326.0064 30981.6875 -64.9044 23.8592
ENERGY: 900000 1.5609 15.9830 4.6379 0.0000 -10853.7373 1475.7230 0.0000 0.0000 1839.8183 -7516.0143 310.1118 -9355.8326 -7534.1885 302.2734 348.5197 416.4308 30504.3646 77.7750 153.5343
ENERGY: 1200000 2.0204 16.4898 6.8792 0.0000 -10731.6709 1474.3311 0.0000 0.0000 1783.0528 -7448.8975 300.5436 -9231.9503 -7527.3830 301.5800 396.6729 498.2939 30983.9669 6.6829 83.8378
ENERGY: 1500000 1.1788 17.9080 5.2632 0.0000 -10763.2552 1462.2141 0.0000 0.0000 1790.1686 -7486.5225 301.7430 -9276.6912 -7519.6500 301.6540 -102.7821 -80.5030 31492.6933 -23.4619 45.6970
TCL: Running FEP window   2: Lambda1 0.95   Lambda2 0.8999999999999999 [dLambda -0.050000000000000044]
TCL: Setting parameter firsttimestep to 0
TCL: Setting parameter alchLambda to 0.95
Info: NONBONDED TABLE R-SQUARED SPACING: 0.0625
Info: NONBONDED TABLE SIZE: 705 POINTS
TCL: Setting parameter alchLambda2 to 0.8999999999999999
Info: NONBONDED TABLE R-SQUARED SPACING: 0.0625
Info: NONBONDED TABLE SIZE: 705 POINTS
TCL: Running for 1500000 steps
ETITLE: TS BOND ANGLE DIHED IMPRP ELECT VDW BOUNDARY MISC KINETIC TOTAL TEMP POTENTIAL TOTALAVG TEMPAVG PRESSURE GPRESSURE VOLUME PRESSAVG GPRESSAVG
ENERGY: 0 1.1788 17.9080 5.2632 0.0000 -10763.0103 1462.4731 0.0000 0.0000 1789.3079 -7486.8794 301.5979 -9276.1872 -7486.8794 301.5979 -165.6045 -89.2405 31492.6933 -165.6045 -89.2405
ENERGY: 300000 0.7810 16.5326 5.2511 0.0000 -10831.8744 1454.9268 0.0000 0.0000 1803.3302 -7551.0527 303.9615 -9354.3829 -7547.0118 302.2664 -104.6585 -65.2250 30897.1222 -264.9529 -194.1550
ENERGY: 600000 1.2189 16.5125 6.1947 0.0000 -10764.3850 1405.7879 0.0000 0.0000 1769.4645 -7565.2065 298.2532 -9334.6710 -7547.0862 301.3603 -356.9213 -272.2439 30831.8862 -350.5109 -274.0885
ENERGY: 900000 1.8534 16.7628 8.9302 0.0000 -10756.0487 1393.8814 0.0000 0.0000 1786.9416 -7547.6794 301.1991 -9334.6210 -7547.7027 300.8143 -548.6434 -511.1549 31037.7232 -354.7065 -293.7596
ENERGY: 1200000 3.3357 17.3703 5.8545 0.0000 -10972.7035 1571.6601 0.0000 0.0000 1778.3375 -7596.1455 299.7488 -9374.4830 -7551.4161 301.0347 879.5292 921.1583 30346.0134 -204.5561 -143.3948
ENERGY: 1500000 2.2071 14.6632 5.0848 0.0000 -10705.4889 1363.7361 0.0000 0.0000 1772.0390 -7547.7588 298.6872 -9319.7978 -7554.8117 299.8876 -617.1995 -549.0202 30333.3438 -259.9364 -197.3201
TCL: Running FEP window   3: Lambda1 0.8999999999999999 Lambda2 0.8499999999999999 [dLambda -0.050000000000000044]
TCL: Setting parameter firsttimestep to 0
TCL: Setting parameter alchLambda to 0.8999999999999999
Info: NONBONDED TABLE R-SQUARED SPACING: 0.0625
Info: NONBONDED TABLE SIZE: 705 POINTS
TCL: Setting parameter alchLambda2 to 0.8499999999999999
Info: NONBONDED TABLE R-SQUARED SPACING: 0.0625
Info: NONBONDED TABLE SIZE: 705 POINTS
TCL: Running for 1500000 steps
ETITLE: TS BOND ANGLE DIHED IMPRP ELECT VDW BOUNDARY MISC KINETIC TOTAL TEMP POTENTIAL TOTALAVG TEMPAVG PRESSURE GPRESSURE VOLUME PRESSAVG GPRESSAVG
ENERGY: 0 2.2071 14.6632 5.0848 0.0000 -10705.3396 1364.1528 0.0000 0.0000 1771.1407 -7548.0911 298.5358 -9319.2317 -7548.0911 298.5358 -638.2564 -555.9364 30333.3438 -638.2564 -555.9364
ENERGY: 300000 1.4421 18.2405 5.8935 0.0000 -10872.4797 1476.3029 0.0000 0.0000 1790.6923 -7579.9084 301.8313 -9370.6007 -7575.2231 298.9487 444.0999 435.9733 30323.2752 -35.1319 12.8323
ENERGY: 600000 1.7319 15.7753 6.1666 0.0000 -10659.7015 1349.8134 0.0000 0.0000 1811.1739 -7475.0403 305.2836 -9286.2143 -7564.4973 298.0993 -617.2922 -612.4502 31073.6704 -328.7878 -272.3319
ENERGY: 900000 1.1013 17.0447 5.9954 0.0000 -10859.0860 1458.6212 0.0000 0.0000 1778.9692 -7597.3541 299.8553 -9376.3233 -7586.0818 297.3387 20.1303 32.2467 30411.9254 -182.7815 -121.0455
ENERGY: 1200000 1.7639 20.4836 4.7158 0.0000 -10878.3603 1487.4504 0.0000 0.0000 1823.1887 -7540.7578 307.3088 -9363.9465 -7589.3766 297.9031 136.6606 182.0728 30775.8595 -143.3067 -85.2049
ENERGY: 1500000 1.9034 16.5197 5.6318 0.0000 -10736.0865 1395.0019 0.0000 0.0000 1794.1976 -7522.8321 302.4221 -9317.0297 -7581.6322 298.1580 -168.8056 -121.6652 30447.4810 -64.7103 -4.0545
TCL: Running FEP window   4: Lambda1 0.8499999999999999 Lambda2 0.7999999999999998 [dLambda -0.050000000000000044]
TCL: Setting parameter firsttimestep to 0
TCL: Setting parameter alchLambda to 0.8499999999999999
Info: NONBONDED TABLE R-SQUARED SPACING: 0.0625
Info: NONBONDED TABLE SIZE: 705 POINTS
TCL: Setting parameter alchLambda2 to 0.7999999999999998
Info: NONBONDED TABLE R-SQUARED SPACING: 0.0625
Info: NONBONDED TABLE SIZE: 705 POINTS
TCL: Running for 1500000 steps
ETITLE: TS BOND ANGLE DIHED IMPRP ELECT VDW BOUNDARY MISC KINETIC TOTAL TEMP POTENTIAL TOTALAVG TEMPAVG PRESSURE GPRESSURE VOLUME PRESSAVG GPRESSAVG
ENERGY: 0 1.9034 16.5197 5.6318 0.0000 -10736.0454 1395.4427 0.0000 0.0000 1793.3189 -7523.2290 302.2740 -9316.5479 -7523.2290 302.2740 -206.3394 -124.0556 30447.4810 -206.3394 -124.0556
ENERGY: 300000 1.9124 18.1587 4.9113 0.0000 -10756.5966 1413.3084 0.0000 0.0000 1753.2919 -7565.0139 295.5272 -9318.3058 -7537.6898 300.3380 -338.9739 -292.5405 30790.6526 249.5523 303.8886
ENERGY: 600000 0.3760 16.3547 4.2529 0.0000 -10650.5782 1401.3639 0.0000 0.0000 1780.3670 -7447.8636 300.0909 -9228.2306 -7515.0848 300.4850 -207.6397 -155.6734 30901.2804 -10.1743 31.7974
ENERGY: 900000 2.0268 16.2094 5.0172 0.0000 -10873.3691 1492.9403 0.0000 0.0000 1697.5239 -7659.6514 286.1272 -9357.1753 -7529.1572 299.2478 133.9089 217.9650 30674.3485 -8.6074 39.7426
ENERGY: 1200000 1.6766 15.7234 5.3080 0.0000 -10738.0337 1430.4263 0.0000 0.0000 1781.6585 -7503.2409 300.3086 -9284.8994 -7541.8582 300.0246 -263.7181 -187.4181 31409.7782 8.6107 70.6513
ENERGY: 1500000 1.3289 15.0659 4.8452 0.0000 -10671.9133 1350.8336 0.0000 0.0000 1758.5696 -7541.2702 296.4168 -9299.8398 -7551.8487 299.1389 -458.6872 -429.2539 30624.1377 -124.3648 -65.7271
TCL: Running FEP window   5: Lambda1 0.7999999999999998 Lambda2 0.7499999999999998 [dLambda -0.050000000000000044]
TCL: Setting parameter firsttimestep to 0
TCL: Setting parameter alchLambda to 0.7999999999999998
Info: NONBONDED TABLE R-SQUARED SPACING: 0.0625
Info: NONBONDED TABLE SIZE: 705 POINTS
TCL: Setting parameter alchLambda2 to 0.7499999999999998
Info: NONBONDED TABLE R-SQUARED SPACING: 0.0625
Info: NONBONDED TABLE SIZE: 705 POINTS
TCL: Running for 1500000 steps
ETITLE: TS BOND ANGLE DIHED IMPRP ELECT VDW BOUNDARY MISC KINETIC TOTAL TEMP POTENTIAL TOTALAVG TEMPAVG PRESSURE GPRESSURE VOLUME PRESSAVG GPRESSAVG
ENERGY: 0 1.3289 15.0659 4.8452 0.0000 -10672.0126 1351.0501 0.0000 0.0000 1757.6976 -7542.0249 296.2699 -9299.7225 -7542.0249 296.2699 -534.1953 -437.7936 30624.1377 -534.1953 -437.7936
ENERGY: 300000 1.0013 16.9104 7.5653 0.0000 -10712.3560 1363.8298 0.0000 0.0000 1809.8981 -7513.1511 305.0685 -9323.0492 -7549.2975 298.5437 -470.6185 -425.2130 30523.2484 -492.5243 -439.8589
ENERGY: 600000 1.3784 19.6057 4.6316 0.0000 -10876.8737 1500.0642 0.0000 0.0000 1823.9161 -7527.2777 307.4314 -9351.1938 -7547.9225 300.4473 398.7245 459.8084 30573.8471 -238.3124 -175.9150
ENERGY: 900000 2.4679 15.7327 4.6021 0.0000 -10848.8092 1431.7149 0.0000 0.0000 1809.2376 -7585.0539 304.9572 -9394.2915 -7553.4157 301.1926 -541.9741 -489.5678 30922.6023 -122.0790 -50.9982
ENERGY: 1200000 0.4702 14.8933 5.3951 0.0000 -10851.3875 1396.0181 0.0000 0.0000 1781.3272 -7653.2837 300.2528 -9434.6109 -7560.9633 300.3679 -724.1898 -613.6485 30819.8541 -165.4872 -92.3641
ENERGY: 1500000 0.8759 16.4129 6.3119 0.0000 -10911.8681 1446.0906 0.0000 0.0000 1729.9894 -7712.1876 291.5995 -9442.1769 -7565.3735 299.4999 -414.0037 -352.6990 30571.8224 -125.2306 -51.8029
TCL: Running FEP window   6: Lambda1 0.7499999999999998 Lambda2 0.6999999999999997 [dLambda -0.050000000000000044]
TCL: Setting parameter firsttimestep to 0
TCL: Setting parameter alchLambda to 0.7499999999999998
Info: NONBONDED TABLE R-SQUARED SPACING: 0.0625
Info: NONBONDED TABLE SIZE: 705 POINTS
TCL: Setting parameter alchLambda2 to 0.6999999999999997
Info: NONBONDED TABLE R-SQUARED SPACING: 0.0625
Info: NONBONDED TABLE SIZE: 705 POINTS
TCL: Running for 1500000 steps
ETITLE: TS BOND ANGLE DIHED IMPRP ELECT VDW BOUNDARY MISC KINETIC TOTAL TEMP POTENTIAL TOTALAVG TEMPAVG PRESSURE GPRESSURE VOLUME PRESSAVG GPRESSAVG
ENERGY: 0 0.8759 16.4129 6.3119 0.0000 -10911.6183 1446.7053 0.0000 0.0000 1729.0915 -7712.2209 291.4481 -9441.3124 -7712.2209 291.4481 -433.5068 -350.4031 30571.8224 -433.5068 -350.4031
ENERGY: 300000 1.7199 15.3882 6.8973 0.0000 -10875.5341 1488.6079 0.0000 0.0000 1761.7781 -7601.1427 296.9577 -9362.9208 -7628.1886 297.3070 232.5237 256.7141 30578.1357 -311.5262 -259.7040
ENERGY: 600000 0.3025 17.8230 5.6208 0.0000 -10801.0910 1432.1086 0.0000 0.0000 1827.9407 -7517.2954 308.1097 -9345.2361 -7576.7876 300.0374 -12.7743 19.8453 30471.1561 -220.3484 -183.5970
ENERGY: 900000 0.9825 14.8497 5.1937 0.0000 -10805.0065 1486.1745 0.0000 0.0000 1793.7843 -7504.0217 302.3525 -9297.8061 -7576.7278 299.7325 75.2125 199.3883 31237.7201 -200.0409 -154.0747
ENERGY: 1200000 0.4945 14.3342 5.8369 0.0000 -10874.5836 1466.3270 0.0000 0.0000 1758.7028 -7628.8882 296.4393 -9387.5909 -7580.2348 299.5135 37.6251 111.8884 30283.2684 -207.8269 -153.1591
ENERGY: 1500000 0.6152 16.0356 5.6564 0.0000 -10776.8413 1444.0546 0.0000 0.0000 1756.2237 -7554.2559 296.0214 -9310.4795 -7579.6543 298.7540 98.0561 110.3296 30660.7653 -254.1024 -206.8876
TCL: Running FEP window   7: Lambda1 0.6999999999999997 Lambda2 0.6499999999999997 [dLambda -0.050000000000000044]
TCL: Setting parameter firsttimestep to 0
TCL: Setting parameter alchLambda to 0.6999999999999997
Info: NONBONDED TABLE R-SQUARED SPACING: 0.0625
Info: NONBONDED TABLE SIZE: 705 POINTS
TCL: Setting parameter alchLambda2 to 0.6499999999999997
Info: NONBONDED TABLE R-SQUARED SPACING: 0.0625
Info: NONBONDED TABLE SIZE: 705 POINTS
TCL: Running for 1500000 steps
ETITLE: TS BOND ANGLE DIHED IMPRP ELECT VDW BOUNDARY MISC KINETIC TOTAL TEMP POTENTIAL TOTALAVG TEMPAVG PRESSURE GPRESSURE VOLUME PRESSAVG GPRESSAVG
ENERGY: 0 0.6152 16.0356 5.6564 0.0000 -10776.4540 1444.0430 0.0000 0.0000 1755.3482 -7554.7558 295.8738 -9310.1039 -7554.7558 295.8738 16.0424 102.4731 30660.7653 16.0424 102.4731
ENERGY: 300000 3.8926 15.9743 8.9124 0.0000 -10962.4581 1531.1372 0.0000 0.0000 1813.7272 -7588.8145 305.7140 -9402.5416 -7602.5483 301.8566 387.5588 479.9268 30317.4664 56.3701 131.9647
ENERGY: 600000 1.3557 14.6686 7.9464 0.0000 -10680.2228 1406.0017 0.0000 0.0000 1787.0311 -7463.2193 301.2142 -9250.2504 -7551.4367 302.1948 -389.6202 -306.9882 31132.6272 -73.5261 -3.2149
ENERGY: 900000 0.4259 19.1736 4.7064 0.0000 -10766.4288 1437.4463 0.0000 0.0000 1758.4022 -7546.2745 296.3886 -9304.6766 -7553.6793 301.3520 -89.3667 -34.5909 30787.0048 -69.9881 -7.6252
ENERGY: 1200000 0.8072 19.9984 5.0895 0.0000 -10817.1685 1498.8648 0.0000 0.0000 1792.1686 -7500.2400 302.0801 -9292.4086 -7536.4753 301.8399 494.9903 523.7737 30540.9348 33.0868 87.5950
ENERGY: 1500000 1.0569 16.3516 5.8540 0.0000 -10822.8561 1462.0807 0.0000 0.0000 1750.1033 -7587.4096 294.9898 -9337.5129 -7547.0508 301.4389 -196.1957 -87.7593 30865.2011 -18.7508 38.8299
TCL: Running FEP window   8: Lambda1 0.6499999999999997 Lambda2 0.5999999999999996 [dLambda -0.050000000000000044]
TCL: Setting parameter firsttimestep to 0
TCL: Setting parameter alchLambda to 0.6499999999999997
Info: NONBONDED TABLE R-SQUARED SPACING: 0.0625
Info: NONBONDED TABLE SIZE: 705 POINTS
TCL: Setting parameter alchLambda2 to 0.5999999999999996
Info: NONBONDED TABLE R-SQUARED SPACING: 0.0625
Info: NONBONDED TABLE SIZE: 705 POINTS
TCL: Running for 1500000 steps
ETITLE: TS BOND ANGLE DIHED IMPRP ELECT VDW BOUNDARY MISC KINETIC TOTAL TEMP POTENTIAL TOTALAVG TEMPAVG PRESSURE GPRESSURE VOLUME PRESSAVG GPRESSAVG
ENERGY: 0 1.0569 16.3516 5.8540 0.0000 -10822.9504 1462.0954 0.0000 0.0000 1749.1908 -7588.4018 294.8360 -9337.5926 -7588.4018 294.8360 -175.0177 -95.4176 30865.2011 -175.0177 -95.4176
ENERGY: 300000 1.3389 18.4416 4.0264 0.0000 -10880.5437 1474.3685 0.0000 0.0000 1800.3732 -7581.9952 303.4631 -9382.3684 -7594.5806 299.3535 -131.1769 -7.3065 30831.3965 -348.3211 -235.1253
ENERGY: 600000 2.1060 16.2434 5.7459 0.0000 -10772.6598 1413.0813 0.0000 0.0000 1794.4678 -7541.0155 302.4677 -9335.4833 -7567.5420 300.2067 -382.1310 -308.6865 30713.7351 -205.9745 -112.0908
ENERGY: 900000 2.5122 15.4051 5.3473 0.0000 -10618.9660 1301.0841 0.0000 0.0000 1745.8890 -7548.7283 294.2794 -9294.6173 -7554.7969 300.7602 -1233.5113 -1104.1201 30976.6984 -213.8099 -133.3643
ENERGY: 1200000 1.3325 21.2050 4.5320 0.0000 -10564.0756 1347.0608 0.0000 0.0000 1807.7542 -7382.1910 304.7072 -9189.9452 -7548.5457 300.9914 -405.3883 -439.6118 31118.8372 -258.1333 -184.1455
ENERGY: 1500000 1.6665 22.5771 5.3922 0.0000 -10801.7982 1427.5291 0.0000 0.0000 1805.2096 -7539.4238 304.2783 -9344.6333 -7551.0316 300.5636 -156.5582 -106.9139 30306.5800 -214.5203 -141.2444
TCL: Running FEP window   9: Lambda1 0.5999999999999996 Lambda2 0.5499999999999996 [dLambda -0.050000000000000044]
TCL: Setting parameter firsttimestep to 0
TCL: Setting parameter alchLambda to 0.5999999999999996
Info: NONBONDED TABLE R-SQUARED SPACING: 0.0625
Info: NONBONDED TABLE SIZE: 705 POINTS
TCL: Setting parameter alchLambda2 to 0.5499999999999996
Info: NONBONDED TABLE R-SQUARED SPACING: 0.0625
Info: NONBONDED TABLE SIZE: 705 POINTS
TCL: Running for 1500000 steps
ETITLE: TS BOND ANGLE DIHED IMPRP ELECT VDW BOUNDARY MISC KINETIC TOTAL TEMP POTENTIAL TOTALAVG TEMPAVG PRESSURE GPRESSURE VOLUME PRESSAVG GPRESSAVG
ENERGY: 0 1.6665 22.5771 5.3922 0.0000 -10801.8093 1426.8529 0.0000 0.0000 1804.2919 -7541.0288 304.1236 -9345.3206 -7541.0288 304.1236 -203.3376 -122.4026 30306.5800 -203.3376 -122.4026
ENERGY: 300000 1.8119 17.7481 5.2263 0.0000 -10654.5598 1378.9400 0.0000 0.0000 1756.2385 -7494.5950 296.0239 -9250.8336 -7539.6519 297.9645 -538.3883 -441.4417 30914.1289 -288.7740 -211.8948
ENERGY: 600000 0.3527 18.3334 5.4384 0.0000 -10773.3008 1414.1808 0.0000 0.0000 1772.0699 -7562.9256 298.6924 -9334.9955 -7535.7832 299.7954 -457.4110 -397.7635 30826.7036 -329.3256 -265.3668
ENERGY: 900000 3.8204 13.9599 5.4196 0.0000 -10865.9566 1465.8383 0.0000 0.0000 1749.1895 -7627.7289 294.8358 -9376.9184 -7548.8905 299.5413 -44.5482 57.2229 30579.2673 -312.0440 -253.2043
ENERGY: 1200000 2.2134 14.2129 5.9987 0.0000 -10647.8287 1361.3793 0.0000 0.0000 1813.4861 -7450.5382 305.6733 -9264.0243 -7537.3466 300.5666 -872.1043 -805.0442 31233.1108 -409.0853 -339.6815
ENERGY: 1500000 0.3131 16.4981 5.3563 0.0000 -10822.9249 1474.1177 0.0000 0.0000 1759.8334 -7566.8063 296.6299 -9326.6397 -7551.4037 299.0227 127.9593 178.7295 30649.6204 -338.2013 -271.2235
TCL: Running FEP window  10: Lambda1 0.5499999999999996 Lambda2 0.4999999999999996 [dLambda -0.04999999999999999]
TCL: Setting parameter firsttimestep to 0
TCL: Setting parameter alchLambda to 0.5499999999999996
Info: NONBONDED TABLE R-SQUARED SPACING: 0.0625
Info: NONBONDED TABLE SIZE: 705 POINTS
TCL: Setting parameter alchLambda2 to 0.4999999999999996
Info: NONBONDED TABLE R-SQUARED SPACING: 0.0625
Info: NONBONDED TABLE SIZE: 705 POINTS
TCL: Running for 1500000 steps
ETITLE: TS BOND ANGLE DIHED IMPRP ELECT VDW BOUNDARY MISC KINETIC TOTAL TEMP POTENTIAL TOTALAVG TEMPAVG PRESSURE GPRESSURE VOLUME PRESSAVG GPRESSAVG
ENERGY: 0 0.3131 16.4981 5.3563 0.0000 -10822.9813 1473.8987 0.0000 0.0000 1758.9538 -7567.9613 296.4816 -9326.9152 -7567.9613 296.4816 99.0845 170.6411 30649.6204 99.0845 170.6411
ENERGY: 300000 4.4042 15.3904 4.8798 0.0000 -10765.9044 1484.1904 0.0000 0.0000 1770.8833 -7486.1563 298.4924 -9257.0396 -7549.7841 300.1937 342.1717 346.0133 30659.0433 180.3063 198.6633
ENERGY: 600000 0.6311 16.9451 6.4282 0.0000 -10888.5295 1517.0434 0.0000 0.0000 1784.6695 -7562.8122 300.8161 -9347.4817 -7571.5138 297.2711 652.5580 693.5432 30221.4633 328.9754 374.8361
ENERGY: 900000 1.4178 17.5448 6.3725 0.0000 -10834.9946 1458.0044 0.0000 0.0000 1740.9709 -7610.6840 293.4505 -9351.6549 -7571.5472 297.2492 -126.9690 -74.1551 30458.6004 168.7021 228.6346
ENERGY: 1200000 2.1618 15.6519 5.8034 0.0000 -10813.4116 1447.1503 0.0000 0.0000 1818.6403 -7524.0039 306.5421 -9342.6442 -7560.0166 299.2984 155.8432 243.5113 30424.2201 83.0882 143.2673
ENERGY: 1500000 1.8754 17.0479 6.2875 0.0000 -10654.9433 1366.0219 0.0000 0.0000 1804.3733 -7459.3371 304.1373 -9263.7105 -7548.5428 299.9552 -556.6917 -523.0680 30885.0927 -1.6346 57.8101
TCL: Running FEP window  11: Lambda1 0.4999999999999996 Lambda2 0.4499999999999996 [dLambda -0.04999999999999999]
TCL: Setting parameter firsttimestep to 0
TCL: Setting parameter alchLambda to 0.4999999999999996
Info: NONBONDED TABLE R-SQUARED SPACING: 0.0625
Info: NONBONDED TABLE SIZE: 705 POINTS
TCL: Setting parameter alchLambda2 to 0.4499999999999996
Info: NONBONDED TABLE R-SQUARED SPACING: 0.0625
Info: NONBONDED TABLE SIZE: 705 POINTS
TCL: Running for 1500000 steps
ETITLE: TS BOND ANGLE DIHED IMPRP ELECT VDW BOUNDARY MISC KINETIC TOTAL TEMP POTENTIAL TOTALAVG TEMPAVG PRESSURE GPRESSURE VOLUME PRESSAVG GPRESSAVG
ENERGY: 0 1.8754 17.0479 6.2875 0.0000 -10654.7487 1366.1755 0.0000 0.0000 1803.4832 -7459.8792 303.9873 -9263.3623 -7459.8792 303.9873 -598.3066 -526.8234 30885.0927 -598.3066 -526.8234
ENERGY: 300000 1.9040 14.8759 5.3974 0.0000 -10758.3617 1454.0429 0.0000 0.0000 1741.6944 -7540.4471 293.5724 -9282.1415 -7529.2002 298.5196 -136.7338 -33.7914 31121.0391 -48.9985 35.0726
ENERGY: 600000 0.5224 19.3190 5.1086 0.0000 -10767.0998 1413.9692 0.0000 0.0000 1766.5374 -7561.6432 297.7599 -9328.1806 -7531.5173 298.9108 -207.9690 -113.4019 30427.8785 -3.8461 75.5978
ENERGY: 900000 0.3592 18.9713 6.6072 0.0000 -10687.0775 1415.6873 0.0000 0.0000 1756.0418 -7489.4107 295.9908 -9245.4526 -7539.8092 298.3375 166.8531 239.5941 30292.5227 84.8503 152.7057
ENERGY: 1200000 1.8731 16.3733 5.6568 0.0000 -10721.7539 1431.1837 0.0000 0.0000 1720.1125 -7546.5546 289.9347 -9266.6671 -7529.4072 297.9111 -343.9258 -207.8828 31132.0408 13.1848 81.3749
ENERGY: 1500000 3.7428 16.3578 5.7584 0.0000 -10778.9764 1460.8916 0.0000 0.0000 1759.9435 -7532.2823 296.6484 -9292.2258 -7531.2748 298.4138 116.0184 154.0177 30898.7600 49.1255 119.1932
TCL: Running FEP window  12: Lambda1 0.4499999999999996 Lambda2 0.39999999999999963 [dLambda -0.04999999999999999]
TCL: Setting parameter firsttimestep to 0
TCL: Setting parameter alchLambda to 0.4499999999999996
Info: NONBONDED TABLE R-SQUARED SPACING: 0.0625
Info: NONBONDED TABLE SIZE: 705 POINTS
TCL: Setting parameter alchLambda2 to 0.39999999999999963
Info: NONBONDED TABLE R-SQUARED SPACING: 0.0625
Info: NONBONDED TABLE SIZE: 705 POINTS
TCL: Running for 1500000 steps
ETITLE: TS BOND ANGLE DIHED IMPRP ELECT VDW BOUNDARY MISC KINETIC TOTAL TEMP POTENTIAL TOTALAVG TEMPAVG PRESSURE GPRESSURE VOLUME PRESSAVG GPRESSAVG
ENERGY: 0 3.7428 16.3578 5.7584 0.0000 -10778.9769 1461.0157 0.0000 0.0000 1759.0693 -7533.0328 296.5011 -9292.1021 -7533.0328 296.5011 50.4037 151.6756 30898.7600 50.4037 151.6756
ENERGY: 300000 0.9333 21.2911 4.2151 0.0000 -10895.7627 1544.0430 0.0000 0.0000 1729.5326 -7595.7476 291.5225 -9325.2802 -7514.2928 301.4164 563.9029 601.6452 30837.9153 658.1245 698.6263
ENERGY: 600000 0.8425 20.8812 4.4356 0.0000 -10723.5207 1427.8648 0.0000 0.0000 1783.2106 -7486.2861 300.5702 -9269.4966 -7536.3005 298.7470 -301.1450 -189.1603 30932.0730 415.9353 484.7364
ENERGY: 900000 0.5323 16.6098 5.1571 0.0000 -10810.7351 1449.8834 0.0000 0.0000 1769.8445 -7568.7080 298.3173 -9338.5525 -7543.7948 298.5021 -26.4583 56.8911 30433.1997 174.5779 251.8384
ENERGY: 1200000 0.8539 17.1323 4.6125 0.0000 -10760.9711 1417.7039 0.0000 0.0000 1802.0412 -7518.6273 303.7442 -9320.6685 -7535.6665 299.5311 -253.3501 -142.9020 30694.2055 124.3596 200.9322
ENERGY: 1500000 1.3979 17.3624 7.1025 0.0000 -10856.2982 1515.9793 0.0000 0.0000 1776.4560 -7538.0001 299.4317 -9314.4561 -7536.7339 299.7253 365.2858 494.8792 30615.2061 107.6275 186.8208
TCL: Running FEP window  13: Lambda1 0.39999999999999963 Lambda2 0.34999999999999964 [dLambda -0.04999999999999999]
TCL: Setting parameter firsttimestep to 0
TCL: Setting parameter alchLambda to 0.39999999999999963
Info: NONBONDED TABLE R-SQUARED SPACING: 0.0625
Info: NONBONDED TABLE SIZE: 705 POINTS
TCL: Setting parameter alchLambda2 to 0.34999999999999964
Info: NONBONDED TABLE R-SQUARED SPACING: 0.0625
Info: NONBONDED TABLE SIZE: 705 POINTS
TCL: Running for 1500000 steps
ETITLE: TS BOND ANGLE DIHED IMPRP ELECT VDW BOUNDARY MISC KINETIC TOTAL TEMP POTENTIAL TOTALAVG TEMPAVG PRESSURE GPRESSURE VOLUME PRESSAVG GPRESSAVG
ENERGY: 0 1.3979 17.3624 7.1025 0.0000 -10856.2978 1515.7950 0.0000 0.0000 1775.5542 -7539.0858 299.2797 -9314.6400 -7539.0858 299.2797 382.6008 488.4258 30615.2061 382.6008 488.4258
ENERGY: 300000 1.5319 15.0958 5.9308 0.0000 -10746.1078 1452.8415 0.0000 0.0000 1750.6053 -7520.1025 295.0744 -9270.7078 -7538.3099 298.5549 -289.8431 -127.2611 31248.2932 -17.4877 85.1725
ENERGY: 600000 0.2067 17.6203 4.9366 0.0000 -10762.5910 1432.9098 0.0000 0.0000 1793.4032 -7513.5143 302.2882 -9306.9175 -7554.2324 299.5843 2.1788 39.9160 30374.5778 -107.7855 -27.2554
ENERGY: 900000 2.4318 16.5173 4.7912 0.0000 -10822.3068 1426.6260 0.0000 0.0000 1764.5636 -7607.3768 297.4272 -9371.9404 -7565.8362 299.6917 -385.9107 -325.1359 30388.3217 -85.1860 -14.7086
ENERGY: 1200000 1.4929 17.3620 4.2329 0.0000 -10790.7984 1468.2943 0.0000 0.0000 1715.7984 -7583.6179 289.2075 -9299.4163 -7566.7072 298.4583 -118.7707 -70.4972 30942.2129 -79.8586 -15.3775
ENERGY: 1500000 0.9046 18.7314 4.9607 0.0000 -10795.0207 1450.7836 0.0000 0.0000 1823.8561 -7495.7843 307.4212 -9319.6404 -7560.2151 298.6024 -135.1570 -68.5427 30681.3438 -100.9273 -32.8130
TCL: Running FEP window  14: Lambda1 0.34999999999999964 Lambda2 0.29999999999999966 [dLambda -0.04999999999999999]
TCL: Setting parameter firsttimestep to 0
TCL: Setting parameter alchLambda to 0.34999999999999964
Info: NONBONDED TABLE R-SQUARED SPACING: 0.0625
Info: NONBONDED TABLE SIZE: 705 POINTS
TCL: Setting parameter alchLambda2 to 0.29999999999999966
Info: NONBONDED TABLE R-SQUARED SPACING: 0.0625
Info: NONBONDED TABLE SIZE: 705 POINTS
TCL: Running for 1500000 steps
ETITLE: TS BOND ANGLE DIHED IMPRP ELECT VDW BOUNDARY MISC KINETIC TOTAL TEMP POTENTIAL TOTALAVG TEMPAVG PRESSURE GPRESSURE VOLUME PRESSAVG GPRESSAVG
ENERGY: 0 0.9046 18.7314 4.9607 0.0000 -10795.0196 1451.0361 0.0000 0.0000 1822.9502 -7496.4367 307.2685 -9319.3869 -7496.4367 307.2685 -165.5572 -73.0790 30681.3438 -165.5572 -73.0790
ENERGY: 300000 0.1759 15.6436 5.0646 0.0000 -10931.8660 1446.7478 0.0000 0.0000 1804.0052 -7660.2290 304.0753 -9464.2341 -7554.1145 303.8495 -402.3572 -321.4093 30714.1779 -135.1431 -69.3040
ENERGY: 600000 0.7334 20.7895 3.7256 0.0000 -10849.0562 1450.0676 0.0000 0.0000 1730.5151 -7643.2249 291.6881 -9373.7400 -7576.1683 298.3666 -146.9662 -86.9708 30409.2544 -171.4528 -112.4010
ENERGY: 900000 0.1836 15.7710 5.3880 0.0000 -10888.5493 1516.2602 0.0000 0.0000 1813.1481 -7537.7984 305.6164 -9350.9465 -7570.4290 297.9900 324.2044 393.2483 30834.9861 -150.4248 -95.1751
ENERGY: 1200000 1.7364 19.0208 5.2011 0.0000 -10668.6832 1440.4320 0.0000 0.0000 1761.1584 -7441.1345 296.8532 -9202.2929 -7551.0836 298.6694 12.9150 14.8664 31111.0600 -42.2380 7.1349
ENERGY: 1500000 2.6702 15.9370 6.2123 0.0000 -10777.2787 1441.8371 0.0000 0.0000 1771.6398 -7538.9823 298.6199 -9310.6221 -7539.9340 299.0640 -25.0838 68.7305 30407.0211 -114.4204 -68.0494
TCL: Running FEP window  15: Lambda1 0.29999999999999966 Lambda2 0.24999999999999967 [dLambda -0.04999999999999999]
TCL: Setting parameter firsttimestep to 0
TCL: Setting parameter alchLambda to 0.29999999999999966
Info: NONBONDED TABLE R-SQUARED SPACING: 0.0625
Info: NONBONDED TABLE SIZE: 705 POINTS
TCL: Setting parameter alchLambda2 to 0.24999999999999967
Info: NONBONDED TABLE R-SQUARED SPACING: 0.0625
Info: NONBONDED TABLE SIZE: 705 POINTS
TCL: Running for 1500000 steps
ETITLE: TS BOND ANGLE DIHED IMPRP ELECT VDW BOUNDARY MISC KINETIC TOTAL TEMP POTENTIAL TOTALAVG TEMPAVG PRESSURE GPRESSURE VOLUME PRESSAVG GPRESSAVG
ENERGY: 0 2.6702 15.9370 6.2123 0.0000 -10777.2794 1442.2753 0.0000 0.0000 1770.7503 -7539.4344 298.4700 -9310.1847 -7539.4344 298.4700 -16.4224 67.1838 30407.0211 -16.4224 67.1838
ENERGY: 300000 2.3066 16.7335 5.3803 0.0000 -10758.7781 1412.9906 0.0000 0.0000 1830.7561 -7490.6111 308.5843 -9321.3672 -7591.9535 295.5160 -290.7134 -211.6184 30712.1240 19.0627 80.5228
ENERGY: 600000 3.6919 17.3758 7.7522 0.0000 -10730.9079 1393.2055 0.0000 0.0000 1811.3491 -7497.5335 305.3131 -9308.8825 -7579.0674 296.9339 -472.9100 -397.1555 30825.9807 -19.8760 27.4010
ENERGY: 900000 0.9249 16.4215 5.1254 0.0000 -10717.2482 1410.0042 0.0000 0.0000 1811.0899 -7473.6824 305.2694 -9284.7723 -7573.5139 299.0582 -420.3840 -288.7271 30847.8848 -23.1743 29.5686
ENERGY: 1200000 2.6284 12.7069 5.9271 0.0000 -10740.4778 1420.3848 0.0000 0.0000 1811.7457 -7487.0849 305.3800 -9298.8306 -7563.5800 299.5214 -238.4430 -215.9684 31004.2345 -36.0225 16.3818
ENERGY: 1500000 3.7941 19.2279 5.8160 0.0000 -10788.8758 1436.3737 0.0000 0.0000 1781.4677 -7542.1964 300.2764 -9323.6641 -7563.0577 300.1643 -237.9464 -133.5306 30772.7209 -55.3379 3.7030
TCL: Running FEP window  16: Lambda1 0.24999999999999967 Lambda2 0.19999999999999968 [dLambda -0.04999999999999999]
TCL: Setting parameter firsttimestep to 0
TCL: Setting parameter alchLambda to 0.24999999999999967
Info: NONBONDED TABLE R-SQUARED SPACING: 0.0625
Info: NONBONDED TABLE SIZE: 705 POINTS
TCL: Setting parameter alchLambda2 to 0.19999999999999968
Info: NONBONDED TABLE R-SQUARED SPACING: 0.0625
Info: NONBONDED TABLE SIZE: 705 POINTS
TCL: Running for 1500000 steps
ETITLE: TS BOND ANGLE DIHED IMPRP ELECT VDW BOUNDARY MISC KINETIC TOTAL TEMP POTENTIAL TOTALAVG TEMPAVG PRESSURE GPRESSURE VOLUME PRESSAVG GPRESSAVG
ENERGY: 0 3.7941 19.2279 5.8160 0.0000 -10788.8764 1436.6946 0.0000 0.0000 1780.5862 -7542.7575 300.1279 -9323.3437 -7542.7575 300.1279 -238.5113 -136.7268 30772.7209 -238.5113 -136.7268
ENERGY: 300000 2.4530 17.7591 5.4265 0.0000 -10833.9240 1469.6593 0.0000 0.0000 1747.4574 -7591.1687 294.5438 -9338.6261 -7531.9184 302.1774 444.3223 499.8247 30229.6568 7.6376 59.5293
ENERGY: 600000 1.3606 15.9010 4.2428 0.0000 -10807.5654 1473.4985 0.0000 0.0000 1748.5953 -7563.9672 294.7356 -9312.5625 -7532.0209 299.5749 216.3233 230.3982 30533.0738 -107.3228 -62.0601
ENERGY: 900000 1.4796 18.4899 4.0876 0.0000 -10821.3450 1450.5022 0.0000 0.0000 1775.0848 -7571.7008 299.2006 -9346.7856 -7542.2542 299.6331 -125.6190 -62.5886 30528.5920 -190.9194 -143.5287
ENERGY: 1200000 0.7160 19.2422 4.6521 0.0000 -10712.3303 1464.8060 0.0000 0.0000 1805.1622 -7417.7518 304.2703 -9222.9140 -7523.3298 300.9717 479.1499 559.8245 30257.3120 -84.9184 -29.0956
ENERGY: 1500000 3.9812 15.4575 5.2898 0.0000 -10797.7862 1469.5894 0.0000 0.0000 1802.1149 -7501.3535 303.7566 -9303.4684 -7524.0502 300.3191 52.2055 114.3126 30454.0770 -124.0397 -70.4154
TCL: Running FEP window  17: Lambda1 0.19999999999999968 Lambda2 0.1499999999999997 [dLambda -0.04999999999999999]
TCL: Setting parameter firsttimestep to 0
TCL: Setting parameter alchLambda to 0.19999999999999968
Info: NONBONDED TABLE R-SQUARED SPACING: 0.0625
Info: NONBONDED TABLE SIZE: 705 POINTS
TCL: Setting parameter alchLambda2 to 0.1499999999999997
Info: NONBONDED TABLE R-SQUARED SPACING: 0.0625
Info: NONBONDED TABLE SIZE: 705 POINTS
TCL: Running for 1500000 steps
ETITLE: TS BOND ANGLE DIHED IMPRP ELECT VDW BOUNDARY MISC KINETIC TOTAL TEMP POTENTIAL TOTALAVG TEMPAVG PRESSURE GPRESSURE VOLUME PRESSAVG GPRESSAVG
ENERGY: 0 3.9812 15.4575 5.2898 0.0000 -10797.7870 1469.7348 0.0000 0.0000 1801.2250 -7502.0987 303.6067 -9303.3238 -7502.0987 303.6067 25.0995 112.3928 30454.0770 25.0995 112.3928
ENERGY: 300000 0.9035 15.7003 6.5571 0.0000 -10899.0920 1486.0940 0.0000 0.0000 1760.6565 -7629.1806 296.7686 -9389.8371 -7539.9535 297.9198 -114.4671 3.6953 30711.7035 -10.5878 83.8958
ENERGY: 600000 1.2522 16.9636 5.3948 0.0000 -10906.3584 1469.4547 0.0000 0.0000 1758.9750 -7654.3180 296.4852 -9413.2930 -7579.1137 297.8241 -556.8269 -509.9634 31272.7674 -170.1678 -83.2582
ENERGY: 900000 1.0735 14.3887 6.6329 0.0000 -10898.7689 1529.0447 0.0000 0.0000 1820.9400 -7526.6892 306.9297 -9347.6291 -7558.3894 299.5665 330.6958 431.6232 30817.3464 -146.1277 -58.4767
ENERGY: 1200000 1.4294 16.3769 5.1038 0.0000 -10873.8982 1528.5477 0.0000 0.0000 1772.7895 -7549.6509 298.8137 -9322.4404 -7556.2288 298.5878 410.1223 492.1027 30659.2704 -59.6252 28.5815
ENERGY: 1500000 0.7536 16.2289 5.7102 0.0000 -10918.9451 1542.3913 0.0000 0.0000 1700.4248 -7653.4364 286.6162 -9353.8612 -7556.6592 298.8194 530.1228 641.3940 30360.6613 -132.1676 -42.0194
TCL: Running FEP window  18: Lambda1 0.1499999999999997 Lambda2 0.09999999999999969 [dLambda -0.05 ]
TCL: Setting parameter firsttimestep to 0
TCL: Setting parameter alchLambda to 0.1499999999999997
Info: NONBONDED TABLE R-SQUARED SPACING: 0.0625
Info: NONBONDED TABLE SIZE: 705 POINTS
TCL: Setting parameter alchLambda2 to 0.09999999999999969
Info: NONBONDED TABLE R-SQUARED SPACING: 0.0625
Info: NONBONDED TABLE SIZE: 705 POINTS
TCL: Running for 1500000 steps
ETITLE: TS BOND ANGLE DIHED IMPRP ELECT VDW BOUNDARY MISC KINETIC TOTAL TEMP POTENTIAL TOTALAVG TEMPAVG PRESSURE GPRESSURE VOLUME PRESSAVG GPRESSAVG
ENERGY: 0 0.7536 16.2289 5.7102 0.0000 -10918.9448 1542.9068 0.0000 0.0000 1699.5590 -7653.7864 286.4703 -9353.3454 -7653.7864 286.4703 554.6649 642.7924 30360.6613 554.6649 642.7924
ENERGY: 300000 1.5222 17.0947 5.6765 0.0000 -10844.3542 1507.0639 0.0000 0.0000 1828.9490 -7484.0478 308.2797 -9312.9968 -7591.5878 297.8871 407.6063 469.9127 30474.3625 256.6049 325.2368
ENERGY: 600000 1.8408 17.3187 5.0298 0.0000 -10793.6984 1431.6793 0.0000 0.0000 1838.2146 -7499.6153 309.8415 -9337.8298 -7576.3003 299.6673 -96.7183 -101.9394 30581.5601 116.4192 185.9468
ENERGY: 900000 1.5220 14.5219 5.0097 0.0000 -10810.5623 1430.7814 0.0000 0.0000 1804.6169 -7554.1104 304.1784 -9358.7274 -7579.5014 299.9983 -396.6392 -315.8380 30844.8138 29.3933 93.2681
ENERGY: 1200000 1.2185 17.4158 6.5059 0.0000 -10985.7308 1546.8641 0.0000 0.0000 1817.8182 -7595.9082 306.4035 -9413.7265 -7587.4608 300.7719 691.1043 775.7687 30211.2706 44.8728 113.3475
ENERGY: 1500000 0.8112 16.2523 5.0435 0.0000 -10788.1464 1494.3539 0.0000 0.0000 1788.0163 -7483.6692 301.3802 -9271.6855 -7580.0243 301.2085 591.4438 710.4883 30421.6591 59.5445 130.9778
TCL: Running FEP window  19: Lambda1 0.09999999999999969 Lambda2 0.049999999999999684 [dLambda -0.05 ]
TCL: Setting parameter firsttimestep to 0
TCL: Setting parameter alchLambda to 0.09999999999999969
Info: NONBONDED TABLE R-SQUARED SPACING: 0.0625
Info: NONBONDED TABLE SIZE: 705 POINTS
TCL: Setting parameter alchLambda2 to 0.049999999999999684
Info: NONBONDED TABLE R-SQUARED SPACING: 0.0625
Info: NONBONDED TABLE SIZE: 705 POINTS
TCL: Running for 1500000 steps
ETITLE: TS BOND ANGLE DIHED IMPRP ELECT VDW BOUNDARY MISC KINETIC TOTAL TEMP POTENTIAL TOTALAVG TEMPAVG PRESSURE GPRESSURE VOLUME PRESSAVG GPRESSAVG
ENERGY: 0 0.8112 16.2524 5.0435 0.0000 -10788.1470 1494.7956 0.0000 0.0000 1787.1325 -7484.1118 301.2313 -9271.2443 -7484.1118 301.2313 633.0887 711.2016 30421.6591 633.0887 711.2016
ENERGY: 300000 3.0571 14.6750 7.1743 0.0000 -10949.4447 1607.7842 0.0000 0.0000 1797.6637 -7519.0904 303.0064 -9316.7541 -7531.2278 301.9651 1076.8324 1170.2768 30706.2075 107.8269 182.5357
ENERGY: 600000 2.1494 13.5060 8.1725 0.0000 -10552.2363 1276.5464 0.0000 0.0000 1764.4229 -7487.4390 297.4034 -9251.8619 -7533.9371 300.3135 -1416.2061 -1334.0449 30840.5223 -115.2893 -39.8682
ENERGY: 900000 1.1267 14.4681 5.6592 0.0000 -10901.9747 1521.4766 0.0000 0.0000 1798.2701 -7560.9740 303.1086 -9359.2441 -7544.7580 299.9038 423.6472 482.5888 30372.7274 18.0599 85.8783
ENERGY: 1200000 2.3111 16.1058 5.1695 0.0000 -10841.2638 1463.2298 0.0000 0.0000 1759.7918 -7594.6558 296.6229 -9354.4477 -7556.1312 299.0330 -214.3633 -172.9974 30839.0079 -21.8916 44.7349
ENERGY: 1500000 2.0881 19.0804 6.4140 0.0000 -10898.1516 1502.1569 0.0000 0.0000 1740.7045 -7627.7077 293.4056 -9368.4122 -7554.2330 299.2828 238.9890 299.3858 30230.5996 47.3962 112.4338
TCL: Running FEP window  20: Lambda1 0.049999999999999684 Lambda2 0.0    [dLambda -0.049999999999999684]
TCL: Setting parameter firsttimestep to 0
TCL: Setting parameter alchLambda to 0.049999999999999684
Info: NONBONDED TABLE R-SQUARED SPACING: 0.0625
Info: NONBONDED TABLE SIZE: 705 POINTS
TCL: Setting parameter alchLambda2 to 0.0
Info: NONBONDED TABLE R-SQUARED SPACING: 0.0625
Info: NONBONDED TABLE SIZE: 705 POINTS
TCL: Running for 1500000 steps
ETITLE: TS BOND ANGLE DIHED IMPRP ELECT VDW BOUNDARY MISC KINETIC TOTAL TEMP POTENTIAL TOTALAVG TEMPAVG PRESSURE GPRESSURE VOLUME PRESSAVG GPRESSAVG
ENERGY: 0 2.0881 19.0804 6.4140 0.0000 -10898.1506 1501.6167 0.0000 0.0000 1739.8296 -7629.1218 293.2581 -9368.9514 -7629.1218 293.2581 208.4340 295.0101 30230.5996 208.4340 295.0101
ENERGY: 300000 2.2977 15.8179 6.7566 0.0000 -10821.9287 1475.2576 0.0000 0.0000 1816.2863 -7505.5127 306.1453 -9321.7990 -7571.6039 298.2618 -2.4907 97.1884 30801.7231 53.9318 116.9257
ENERGY: 600000 1.1421 18.3291 4.8940 0.0000 -10918.0081 1433.0605 0.0000 0.0000 1836.4652 -7624.1172 309.5466 -9460.5823 -7576.8047 299.9729 -443.9684 -350.0732 30273.4132 -77.7365 -17.7703
ENERGY: 900000 1.2943 15.6349 5.3685 0.0000 -10884.9726 1492.1164 0.0000 0.0000 1784.5433 -7586.0151 300.7949 -9370.5585 -7572.1964 299.0421 -164.0883 -75.6159 31003.1437 -236.1388 -167.1043
ENERGY: 1200000 2.1787 13.2835 8.4697 0.0000 -10870.0423 1440.7183 0.0000 0.0000 1810.9193 -7594.4729 305.2407 -9405.3922 -7575.9474 299.0217 -367.1032 -351.3778 30489.1962 -177.6886 -113.5625
ENERGY: 1500000 1.9808 16.9657 5.1824 0.0000 -10739.7522 1387.1801 0.0000 0.0000 1815.9061 -7512.5370 306.0812 -9328.4431 -7571.6500 298.8790 -373.5536 -368.9021 30370.2334 -163.4559 -104.0408
TCL: Exiting due to exit command.
