Info: SIMULATION PARAMETERS:
Info: TIMESTEP               2
Info: NUMBER OF STEPS        0
Info: STEPS PER CYCLE        10
Info: PERIODIC CELL BASIS 1  41.123 0 0
Info: PERIODIC CELL BASIS 2  0 41.628 0
Info: PERIODIC CELL BASIS 3  0 0 40.47
Info: PERIODIC CELL CENTER   0 0 0
Info: WRAPPING WATERS AROUND PERIODIC BOUNDARIES ON OUTPUT.
Info: WRAPPING ALL CLUSTERS AROUND PERIODIC BOUNDARIES ON OUTPUT.
Info: FIRST LDB TIMESTEP     50
Info: LAST LDB TIMESTEP     -1
Info: HOM BACKGROUND SCALING 1
Info: PME BACKGROUND SCALING 1
Info: MIN ATOMS PER PATCH    40
Info: EMPTY PATCH LOAD       40 ATOMS
Info: INITIAL TEMPERATURE    300
Info: CENTER OF MASS MOVING INITIALLY? NO
Info: DIELECTRIC             1
Info: EXCLUDE                SCALED ONE-FOUR
Info: 1-4 ELECTROSTATICS SCALED BY 0.833333
Info: MODIFIED 1-4 VDW PARAMETERS WILL BE USED
Info: DCD FILENAME           mobley_2043882_min.dcd
Info: DCD FREQUENCY          5000
Info: DCD FIRST STEP         5000
Info: DCD FILE WILL CONTAIN UNIT CELL DATA
Info: XST FILENAME           mobley_2043882_min.xst
Info: XST FREQUENCY          5000
Info: NO VELOCITY DCD OUTPUT
Info: NO FORCE DCD OUTPUT
Info: OUTPUT FILENAME        mobley_2043882_min
Info: BINARY OUTPUT FILES WILL BE USED
Info: RESTART FILENAME       mobley_2043882_min.restart
Info: RESTART FREQUENCY      5000
Info: BINARY RESTART FILES WILL BE USED
Info: CUTOFF                 9
Info: PAIRLIST DISTANCE      11
Info: PAIRLIST SHRINK RATE   0.01
Info: PAIRLIST GROW RATE     0.01
Info: PAIRLIST TRIGGER       0.3
Info: PAIRLISTS PER CYCLE    2
Info: PAIRLISTS ENABLED
Info: MARGIN                 8
Info: HYDROGEN GROUP CUTOFF  2.5
Info: PATCH DIMENSION        21.5
Info: ENERGY OUTPUT STEPS    5000
Info: ENERGY EVALUATION STEPS    5000
Info: OUTPUT ENERGY PRECISION 4
Info: CROSSTERM ENERGY INCLUDED IN DIHEDRAL
Info: TIMING OUTPUT STEPS    50000
Info: PRESSURE OUTPUT STEPS  5000
Info: LANGEVIN DYNAMICS ACTIVE
Info: LANGEVIN TEMPERATURE   300
Info: LANGEVIN USING BBK INTEGRATOR
Info: LANGEVIN DAMPING COEFFICIENT IS 1 INVERSE PS
Info: LANGEVIN DYNAMICS APPLIED TO HYDROGENS
Info: LANGEVIN PISTON PRESSURE CONTROL ACTIVE
Info:        TARGET PRESSURE IS 1.01325 BAR
Info:     OSCILLATION PERIOD IS 50 FS
Info:             DECAY TIME IS 25 FS
Info:     PISTON TEMPERATURE IS 300 K
Info:       PRESSURE CONTROL IS GROUP-BASED
Info:    INITIAL STRAIN RATE IS 0 0 0
Info:       CELL FLUCTUATION IS ISOTROPIC
Info: PARTICLE MESH EWALD (PME) ACTIVE
Info: PME TOLERANCE               1e-06
Info: PME EWALD COEFFICIENT       0.348832
Info: PME INTERPOLATION ORDER     4
Info: PME GRID DIMENSIONS         44 44 44
Info: PME MAXIMUM GRID SPACING    1
Info: FULL ELECTROSTATIC EVALUATION FREQUENCY      2
Info: USING VERLET I (r-RESPA) MTS SCHEME.
Info: C1 SPLITTING OF LONG RANGE ELECTROSTATICS
Info: PLACING ATOMS IN PATCHES BY HYDROGEN GROUPS
Info: RIGID BONDS TO HYDROGEN : ALL
Info:         ERROR TOLERANCE : 1e-08
Info:          MAX ITERATIONS : 100
Info: RIGID WATER USING SETTLE ALGORITHM
Info: RANDOM NUMBER SEED     1741338524
Info: USE HYDROGEN BONDS?    NO
Info: Using AMBER format force field!
Info: AMBER PARM FILE        mobley_2043882.prmtop
Info: COORDINATE PDB         mobley_2043882.pdb
Info: Exclusions will be read from PARM file!
Info: SCNB (VDW SCALING)     2
Info: USING ARITHMETIC MEAN TO COMBINE L-J SIGMA PARAMETERS
Info: SUMMARY OF PARAMETERS:
Info: 6 BONDS
Info: 7 ANGLES
Info:   7 HARMONIC
Info:   0 COSINE-BASED
Info: 15 DIHEDRAL
Info: 0 IMPROPER
Info: 0 CROSSTERM
Info: 0 VDW
Info: 21 VDW_PAIRS
Info: 0 NBTHOLE_PAIRS
Info: STRUCTURE SUMMARY:
Info: 5015 ATOMS
Info: 5015 BONDS
Info: 45 ANGLES
Info: 79 DIHEDRALS
Info: 0 IMPROPERS
Info: 0 CROSSTERMS
Info: 5123 EXCLUSIONS
Info: 5006 RIGID BONDS
Info: 10039 DEGREES OF FREEDOM
Info: 1673 HYDROGEN GROUPS
Info: 4 ATOMS IN LARGEST HYDROGEN GROUP
Info: 1673 MIGRATION GROUPS
Info: 4 ATOMS IN LARGEST MIGRATION GROUP
Info: TOTAL MASS = 30104.8 amu
Info: TOTAL CHARGE = 0.000100017 e
Info: MASS DENSITY = 0.721592 g/cm^3
Info: ATOM DENSITY = 0.0723881 atoms/A^3
Info: ADDED 0 IMPLICIT EXCLUSIONS
Info: NONBONDED TABLE R-SQUARED SPACING: 0.0625
Info: NONBONDED TABLE SIZE: 705 POINTS
Info: REMOVING COM VELOCITY -0.0502353 -0.0661107 -0.174619
TCL: Minimizing for 2000 steps
ETITLE: TS BOND ANGLE DIHED IMPRP ELECT VDW BOUNDARY MISC KINETIC TOTAL TEMP POTENTIAL TOTAL3 TEMPAVG PRESSURE GPRESSURE VOLUME PRESSAVG GPRESSAVG
ENERGY: 0 0.4432 0.6251 34.2941 0.0000 -15514.3867 1748.2003 0.0000 0.0000 0.0000 -13730.8241 0.0000 -13730.8241 -13730.8241 0.0000 11137.8805 -15683.4758 69279.3078 11137.8805 -15683.4758
ENERGY: 400 2.7663 2.4682 29.3965 0.0000 -21063.4800 3111.2760 0.0000 0.0000 0.0000 -17917.5730 0.0000 -17917.5730 -17917.5730 0.0000 16071.6491 16220.6329 69279.3078 16071.6491 16220.6329
ENERGY: 800 1.4272 1.6296 28.5901 0.0000 -22026.5026 3501.6274 0.0000 0.0000 0.0000 -18493.2284 0.0000 -18493.2284 -18493.2284 0.0000 17818.1538 17945.6601 69279.3078 17818.1538 17945.6601
ENERGY: 1200 0.7911 1.5047 28.5069 0.0000 -22542.5861 3755.5334 0.0000 0.0000 0.0000 -18756.2499 0.0000 -18756.2499 -18756.2499 0.0000 19015.0578 19134.3315 69279.3078 19015.0578 19134.3315
ENERGY: 1600 0.5981 1.8219 28.5857 0.0000 -22726.3834 3829.7763 0.0000 0.0000 0.0000 -18865.6013 0.0000 -18865.6013 -18865.6013 0.0000 19388.5553 19503.2421 69279.3078 19388.5553 19503.2421
ENERGY: 2000 0.5401 1.4446 28.6998 0.0000 -22853.3308 3878.8406 0.0000 0.0000 0.0000 -18943.8058 0.0000 -18943.8058 -18943.8058 0.0000 19646.8396 19755.9696 69279.3078 19646.8396 19755.9696
TCL: Exiting due to exit command.
Info: NAMD 3.0.1 for Linux-x86_64-multicore
Info: Please visit http://www.ks.uiuc.edu/Research/namd/
Info: for updates, documentation, and support information.
Info: Please cite Phillips et al., J. Chem. Phys. 153:044130 (2020) doi:10.1063/5.0014475
Info: in all publications reporting results obtained with NAMD.
Info: Based on Charm++/Converse 80000 for multicore-linux-x86_64-gcc
Info: Built Mon Oct 14 11:11:06 CDT 2024 by dhardy on athine.ks.uiuc.edu
Info: 1 NAMD  3.0.1  Linux-x86_64-multicore  16    k064  z5358697
Info: Running on 16 processors, 1 nodes, 1 physical nodes.
Info: CPU topology information available.
Info: Charm++/Converse parallel runtime startup completed at 0.00798503 s
Info: 1043.46 MB of memory in use based on /proc/self/stat
Info: Configuration file is mobley_2043882_equil.namd
Info: Working in the current directory /srv/scratch/z5358697/prod_prep_1/2043882
TCL: Running 25000 steps at 30 kelvin.
TCL: Suspending until startup complete.
Info: SIMULATION PARAMETERS:
Info: TIMESTEP               2
Info: NUMBER OF STEPS        0
Info: STEPS PER CYCLE        10
Info: PERIODIC CELL BASIS 1  41.123 0 0
Info: PERIODIC CELL BASIS 2  0 41.628 0
Info: PERIODIC CELL BASIS 3  0 0 40.47
Info: PERIODIC CELL CENTER   0 0 0
Info: WRAPPING WATERS AROUND PERIODIC BOUNDARIES ON OUTPUT.
Info: WRAPPING ALL CLUSTERS AROUND PERIODIC BOUNDARIES ON OUTPUT.
Info: FIRST LDB TIMESTEP     50
Info: LAST LDB TIMESTEP     -1
Info: HOM BACKGROUND SCALING 1
Info: PME BACKGROUND SCALING 1
Info: MIN ATOMS PER PATCH    40
Info: EMPTY PATCH LOAD       40 ATOMS
Info: INITIAL TEMPERATURE    300
Info: CENTER OF MASS MOVING INITIALLY? NO
Info: DIELECTRIC             1
Info: EXCLUDE                SCALED ONE-FOUR
Info: 1-4 ELECTROSTATICS SCALED BY 0.833333
Info: MODIFIED 1-4 VDW PARAMETERS WILL BE USED
Info: DCD FILENAME           mobley_2043882_equil.dcd
Info: DCD FREQUENCY          5000
Info: DCD FIRST STEP         5000
Info: DCD FILE WILL CONTAIN UNIT CELL DATA
Info: XST FILENAME           mobley_2043882_equil.xst
Info: XST FREQUENCY          5000
Info: NO VELOCITY DCD OUTPUT
Info: NO FORCE DCD OUTPUT
Info: OUTPUT FILENAME        mobley_2043882_equil
Info: BINARY OUTPUT FILES WILL BE USED
Info: RESTART FILENAME       mobley_2043882_equil.restart
Info: RESTART FREQUENCY      5000
Info: BINARY RESTART FILES WILL BE USED
Info: CUTOFF                 9
Info: PAIRLIST DISTANCE      11
Info: PAIRLIST SHRINK RATE   0.01
Info: PAIRLIST GROW RATE     0.01
Info: PAIRLIST TRIGGER       0.3
Info: PAIRLISTS PER CYCLE    2
Info: PAIRLISTS ENABLED
Info: MARGIN                 8
Info: HYDROGEN GROUP CUTOFF  2.5
Info: PATCH DIMENSION        21.5
Info: ENERGY OUTPUT STEPS    5000
Info: ENERGY EVALUATION STEPS    5000
Info: OUTPUT ENERGY PRECISION 4
Info: CROSSTERM ENERGY INCLUDED IN DIHEDRAL
Info: TIMING OUTPUT STEPS    50000
Info: PRESSURE OUTPUT STEPS  5000
Info: LANGEVIN DYNAMICS ACTIVE
Info: LANGEVIN TEMPERATURE   30
Info: LANGEVIN USING BBK INTEGRATOR
Info: LANGEVIN DAMPING COEFFICIENT IS 1 INVERSE PS
Info: LANGEVIN DYNAMICS APPLIED TO HYDROGENS
Info: LANGEVIN PISTON PRESSURE CONTROL ACTIVE
Info:        TARGET PRESSURE IS 1.01325 BAR
Info:     OSCILLATION PERIOD IS 50 FS
Info:             DECAY TIME IS 25 FS
Info:     PISTON TEMPERATURE IS 300 K
Info:       PRESSURE CONTROL IS GROUP-BASED
Info:    INITIAL STRAIN RATE IS 0 0 0
Info:       CELL FLUCTUATION IS ISOTROPIC
Info: PARTICLE MESH EWALD (PME) ACTIVE
Info: PME TOLERANCE               1e-06
Info: PME EWALD COEFFICIENT       0.348832
Info: PME INTERPOLATION ORDER     4
Info: PME GRID DIMENSIONS         44 44 44
Info: PME MAXIMUM GRID SPACING    1
Info: FULL ELECTROSTATIC EVALUATION FREQUENCY      2
Info: USING VERLET I (r-RESPA) MTS SCHEME.
Info: C1 SPLITTING OF LONG RANGE ELECTROSTATICS
Info: PLACING ATOMS IN PATCHES BY HYDROGEN GROUPS
Info: RIGID BONDS TO HYDROGEN : ALL
Info:         ERROR TOLERANCE : 1e-08
Info:          MAX ITERATIONS : 100
Info: RIGID WATER USING SETTLE ALGORITHM
Info: RANDOM NUMBER SEED     1741338540
Info: USE HYDROGEN BONDS?    NO
Info: Using AMBER format force field!
Info: AMBER PARM FILE        mobley_2043882.prmtop
Info: COORDINATE PDB         mobley_2043882.pdb
Info: Exclusions will be read from PARM file!
Info: SCNB (VDW SCALING)     2
Info: USING ARITHMETIC MEAN TO COMBINE L-J SIGMA PARAMETERS
Info: BINARY COORDINATES     mobley_2043882_min.coor
Info: SUMMARY OF PARAMETERS:
Info: 6 BONDS
Info: 7 ANGLES
Info:   7 HARMONIC
Info:   0 COSINE-BASED
Info: 15 DIHEDRAL
Info: 0 IMPROPER
Info: 0 CROSSTERM
Info: 0 VDW
Info: 21 VDW_PAIRS
Info: 0 NBTHOLE_PAIRS
Info: STRUCTURE SUMMARY:
Info: 5015 ATOMS
Info: 5015 BONDS
Info: 45 ANGLES
Info: 79 DIHEDRALS
Info: 0 IMPROPERS
Info: 0 CROSSTERMS
Info: 5123 EXCLUSIONS
Info: 5006 RIGID BONDS
Info: 10039 DEGREES OF FREEDOM
Info: 1673 HYDROGEN GROUPS
Info: 4 ATOMS IN LARGEST HYDROGEN GROUP
Info: 1673 MIGRATION GROUPS
Info: 4 ATOMS IN LARGEST MIGRATION GROUP
Info: TOTAL MASS = 30104.8 amu
Info: TOTAL CHARGE = 0.000100017 e
Info: MASS DENSITY = 0.721592 g/cm^3
Info: ATOM DENSITY = 0.0723881 atoms/A^3
Info: ADDED 0 IMPLICIT EXCLUSIONS
Info: NONBONDED TABLE R-SQUARED SPACING: 0.0625
Info: NONBONDED TABLE SIZE: 705 POINTS
Info: REMOVING COM VELOCITY 0.174412 0.0538025 -0.191973
TCL: Running for 25000 steps
ETITLE: TS BOND ANGLE DIHED IMPRP ELECT VDW BOUNDARY MISC KINETIC TOTAL TEMP POTENTIAL TOTAL3 TEMPAVG PRESSURE GPRESSURE VOLUME PRESSAVG GPRESSAVG
ENERGY: 0 0.5401 1.4446 28.6998 0.0000 -22853.3308 3878.8406 0.0000 0.0000 2956.9583 -15986.8475 296.4457 -18943.8058 -15986.2363 296.4457 -53.3300 -4.4692 69279.3078 -53.3300 -4.4692
ENERGY: 5000 0.4489 2.5442 28.7462 0.0000 -24100.3254 4157.0633 0.0000 0.0000 301.8299 -19609.6930 30.2595 -19911.5229 -19608.6476 48.0915 -51.5144 2.4675 48408.9542 3.4700 3.6672
ENERGY: 10000 0.5811 2.6742 28.6351 0.0000 -23984.1028 4002.2048 0.0000 0.0000 303.4927 -19646.5150 30.4262 -19950.0077 -19645.5296 30.3365 -941.4805 -888.4963 48639.5648 2.2106 2.1610
ENERGY: 15000 0.8768 2.9116 28.3177 0.0000 -24209.9921 4218.4924 0.0000 0.0000 307.9699 -19651.4238 30.8751 -19959.3937 -19650.8780 29.9956 158.5237 205.6546 48266.6046 7.6502 7.3903
ENERGY: 20000 0.5711 3.3221 28.1968 0.0000 -24151.4410 4143.2336 0.0000 0.0000 298.7484 -19677.3689 29.9506 -19976.1173 -19676.7794 30.1271 -251.9279 -201.9159 48347.0466 4.3319 4.4954
ENERGY: 25000 0.9029 3.1105 28.1860 0.0000 -24244.0661 4221.1981 0.0000 0.0000 301.4531 -19689.2154 30.2218 -19990.6685 -19688.4270 30.0822 88.7916 142.3664 48288.6482 -5.3467 -5.3092
TCL: Running 25000 steps at 60 kelvin.
TCL: Setting parameter langevinTemp to 60
TCL: Running for 25000 steps
ETITLE: TS BOND ANGLE DIHED IMPRP ELECT VDW BOUNDARY MISC KINETIC TOTAL TEMP POTENTIAL TOTAL3 TEMPAVG PRESSURE GPRESSURE VOLUME PRESSAVG GPRESSAVG
ENERGY: 25000 0.9029 3.1105 28.1860 0.0000 -24244.0661 4221.1981 0.0000 0.0000 301.3018 -19689.3668 30.2066 -19990.6685 -19688.6676 30.2066 93.7695 142.3800 48288.6482 93.7695 142.3800
ENERGY: 30000 1.2571 3.1340 28.2920 0.0000 -23837.7422 4108.9317 0.0000 0.0000 594.9394 -19101.1881 59.6448 -19696.1275 -19099.7492 56.9682 237.9779 269.7816 48505.3260 5.9213 5.6685
ENERGY: 35000 1.9043 4.6346 27.9721 0.0000 -23683.9189 3933.7302 0.0000 0.0000 596.0154 -19119.6624 59.7527 -19715.6778 -19117.8875 60.1852 -798.0516 -732.6044 48694.1556 1.7873 2.0569
ENERGY: 40000 0.7381 4.6073 28.1774 0.0000 -23670.0758 3897.6179 0.0000 0.0000 612.2406 -19126.6944 61.3793 -19738.9350 -19124.7821 59.8540 -902.2354 -842.8164 48667.0372 3.7267 3.5017
ENERGY: 45000 0.8205 4.0451 28.5668 0.0000 -24128.9114 4355.6456 0.0000 0.0000 586.6880 -19153.1454 58.8176 -19739.8334 -19151.9842 60.2042 1436.4907 1501.9074 47962.4705 4.2282 4.3067
ENERGY: 50000 0.6428 4.4307 28.4630 0.0000 -23705.8795 3925.3480 0.0000 0.0000 601.2310 -19145.7639 60.2756 -19746.9950 -19143.8465 60.0120 -779.9258 -712.1529 48572.7997 7.7828 7.7613
TCL: Running 25000 steps at 90 kelvin.
TCL: Setting parameter langevinTemp to 90
TCL: Running for 25000 steps
ETITLE: TS BOND ANGLE DIHED IMPRP ELECT VDW BOUNDARY MISC KINETIC TOTAL TEMP POTENTIAL TOTAL3 TEMPAVG PRESSURE GPRESSURE VOLUME PRESSAVG GPRESSAVG
ENERGY: 50000 0.6428 4.4307 28.4630 0.0000 -23705.8795 3925.3480 0.0000 0.0000 600.9359 -19146.0591 60.2460 -19746.9950 -19144.4273 60.2460 -762.5947 -712.0880 48572.7997 -762.5947 -712.0880
ENERGY: 55000 3.2933 5.5960 28.3413 0.0000 -23227.9447 3744.2290 0.0000 0.0000 892.6088 -18553.8764 89.4872 -19446.4852 -18551.7183 86.9497 -1076.2221 -1014.8987 48838.0001 0.2951 -0.0486
ENERGY: 60000 0.6558 5.9803 29.5153 0.0000 -23473.5064 4016.3512 0.0000 0.0000 871.0253 -18549.9785 87.3234 -19421.0038 -18548.4527 90.9293 433.4109 473.4506 48479.5544 2.0274 1.5925
ENERGY: 65000 1.4156 4.0172 29.5149 0.0000 -23445.5345 3941.7201 0.0000 0.0000 891.3435 -18577.5232 89.3604 -19468.8667 -18575.5798 90.6577 -146.9495 -76.7429 48699.1836 2.0238 2.4928
ENERGY: 70000 0.4542 4.6832 29.2406 0.0000 -23556.5536 4022.7246 0.0000 0.0000 890.4916 -18608.9595 89.2750 -19499.4511 -18606.6103 90.2667 273.0696 328.9546 48474.8826 2.7528 2.6197
ENERGY: 75000 1.2004 4.9263 28.3521 0.0000 -23639.7904 4067.6648 0.0000 0.0000 898.2694 -18639.3774 90.0547 -19537.6468 -18637.4544 90.8414 297.4628 387.7075 48390.2977 4.2314 4.1854
TCL: Running 25000 steps at 120 kelvin.
TCL: Setting parameter langevinTemp to 120
TCL: Running for 25000 steps
ETITLE: TS BOND ANGLE DIHED IMPRP ELECT VDW BOUNDARY MISC KINETIC TOTAL TEMP POTENTIAL TOTAL3 TEMPAVG PRESSURE GPRESSURE VOLUME PRESSAVG GPRESSAVG
ENERGY: 75000 1.2004 4.9263 28.3521 0.0000 -23639.7904 4067.6648 0.0000 0.0000 897.8051 -18639.8417 90.0082 -19537.6468 -18638.1328 90.0082 330.0287 388.0573 48390.2977 330.0287 388.0573
ENERGY: 80000 0.9191 6.5738 30.4181 0.0000 -22994.4146 3784.4552 0.0000 0.0000 1219.4947 -17952.5538 122.2587 -19172.0485 -17948.5540 117.0605 -308.3379 -241.2481 49095.5996 6.3966 6.6197
ENERGY: 85000 2.8346 6.0209 28.4486 0.0000 -23074.6480 3815.8009 0.0000 0.0000 1203.0626 -18018.4803 120.6113 -19221.5429 -18015.6280 120.7280 -335.1815 -237.8429 48893.9799 9.6763 9.6581
ENERGY: 90000 2.2301 5.0511 28.3604 0.0000 -23047.5208 3765.3365 0.0000 0.0000 1193.9113 -18052.6314 119.6939 -19246.5427 -18049.9215 120.0274 -580.9439 -533.1321 48933.7281 -1.6367 -1.8638
ENERGY: 95000 0.9435 4.0481 29.5488 0.0000 -23245.4179 3909.3867 0.0000 0.0000 1200.8569 -18100.6338 120.3902 -19301.4908 -18097.0018 120.2267 266.8974 315.8961 48421.5858 4.7089 4.7319
ENERGY: 100000 0.9149 7.3204 29.6525 0.0000 -23179.8725 3800.0139 0.0000 0.0000 1207.4219 -18134.5488 121.0484 -19341.9707 -18130.6108 120.1499 -504.5642 -455.3309 48672.5275 0.7708 0.9920
TCL: Running 25000 steps at 150 kelvin.
TCL: Setting parameter langevinTemp to 150
TCL: Running for 25000 steps
ETITLE: TS BOND ANGLE DIHED IMPRP ELECT VDW BOUNDARY MISC KINETIC TOTAL TEMP POTENTIAL TOTAL3 TEMPAVG PRESSURE GPRESSURE VOLUME PRESSAVG GPRESSAVG
ENERGY: 100000 0.9149 7.3204 29.6525 0.0000 -23179.8725 3800.0139 0.0000 0.0000 1206.8305 -18135.1403 120.9891 -19341.9707 -18132.3425 120.9891 -509.7254 -455.0962 48672.5275 -509.7254 -455.0962
ENERGY: 105000 1.2810 6.1606 29.7783 0.0000 -22752.3349 3776.2250 0.0000 0.0000 1480.5104 -17458.3796 148.4265 -18938.8899 -17455.7947 145.9838 216.5673 276.1895 48951.8015 -2.9106 -2.9338
ENERGY: 110000 1.5971 5.2346 29.1329 0.0000 -22565.2342 3612.4210 0.0000 0.0000 1478.8482 -17438.0004 148.2598 -18916.8486 -17434.7855 150.5404 -658.6847 -589.2352 49294.8572 -0.5026 -0.8148
ENERGY: 115000 1.4322 5.2859 30.7404 0.0000 -22645.8167 3676.1367 0.0000 0.0000 1527.9782 -17404.2433 153.1853 -18932.2215 -17400.8679 149.6576 -242.7583 -213.1116 49000.7834 -0.6707 -0.9957
ENERGY: 120000 1.4909 7.1281 28.4489 0.0000 -22886.9017 3844.4826 0.0000 0.0000 1530.9023 -17474.4489 153.4785 -19005.3512 -17471.0089 149.8364 222.2930 327.1247 49129.5638 6.3634 6.2039
ENERGY: 125000 3.2631 4.8646 29.0031 0.0000 -22674.1869 3669.0501 0.0000 0.0000 1447.3678 -17520.6382 145.1038 -18968.0060 -17519.1462 150.6552 -420.0386 -389.9305 49065.3244 6.9862 7.0430
TCL: Running 50000 steps at 180 kelvin.
TCL: Setting parameter langevinTemp to 180
TCL: Running for 50000 steps
ETITLE: TS BOND ANGLE DIHED IMPRP ELECT VDW BOUNDARY MISC KINETIC TOTAL TEMP POTENTIAL TOTAL3 TEMPAVG PRESSURE GPRESSURE VOLUME PRESSAVG GPRESSAVG
ENERGY: 125000 3.2631 4.8646 29.0031 0.0000 -22674.1869 3669.0501 0.0000 0.0000 1446.6214 -17521.3846 145.0290 -18968.0060 -17518.8234 145.0290 -452.6121 -390.5133 49065.3244 -452.6121 -390.5133
ENERGY: 135000 2.2467 4.6159 30.3389 0.0000 -22252.8333 3654.5070 0.0000 0.0000 1762.4959 -16798.6288 176.6965 -18561.1248 -16793.2462 178.8980 386.8193 438.2510 48890.1608 -0.0788 0.4727
ENERGY: 145000 3.7174 6.9907 31.1807 0.0000 -22141.6446 3512.3768 0.0000 0.0000 1776.0635 -16811.3155 178.0567 -18587.3790 -16806.5070 179.0972 -387.5123 -283.5791 48994.4806 -0.1514 -0.4238
ENERGY: 155000 2.0578 6.5009 28.8325 0.0000 -22234.1098 3650.6251 0.0000 0.0000 1832.5275 -16713.5660 183.7175 -18546.0935 -16709.1796 180.2221 681.7217 673.2601 48509.1106 3.7415 3.6236
ENERGY: 165000 2.1413 8.9800 30.2678 0.0000 -22059.1618 3560.7359 0.0000 0.0000 1812.4814 -16644.5554 181.7078 -18457.0368 -16640.7459 180.3508 170.8952 233.0657 48978.1060 3.5295 3.7194
ENERGY: 175000 2.3966 7.7452 28.4923 0.0000 -22036.8517 3431.8150 0.0000 0.0000 1831.1925 -16735.2101 183.5836 -18566.4026 -16730.4762 180.1612 -716.9734 -620.9301 49084.7438 2.1094 1.4821
TCL: Running 50000 steps at 210 kelvin.
TCL: Setting parameter langevinTemp to 210
TCL: Running for 50000 steps
ETITLE: TS BOND ANGLE DIHED IMPRP ELECT VDW BOUNDARY MISC KINETIC TOTAL TEMP POTENTIAL TOTAL3 TEMPAVG PRESSURE GPRESSURE VOLUME PRESSAVG GPRESSAVG
ENERGY: 175000 2.3966 7.7452 28.4923 0.0000 -22036.8517 3431.8150 0.0000 0.0000 1830.3269 -16736.0757 183.4968 -18566.4026 -16732.9048 183.4968 -701.2681 -619.3596 49084.7438 -701.2681 -619.3596
ENERGY: 185000 2.1191 6.8710 30.8965 0.0000 -21241.7859 3314.8660 0.0000 0.0000 2065.2345 -15821.7987 207.0472 -17887.0333 -15819.8957 210.9497 280.4973 309.7097 48940.2563 0.6712 0.7139
ENERGY: 195000 1.7753 10.0916 31.0315 0.0000 -21100.9760 3222.3153 0.0000 0.0000 2091.1827 -15744.5797 209.6486 -17835.7623 -15740.7809 211.2587 -318.5151 -252.6731 49828.1175 4.5234 5.0600
ENERGY: 205000 1.4943 8.8896 27.7460 0.0000 -21083.9733 3216.3073 0.0000 0.0000 2016.1334 -15813.4027 202.1246 -17829.5361 -15809.3953 210.1371 -103.7651 14.7315 49005.7599 -2.6470 -3.0216
ENERGY: 215000 1.8886 9.1767 28.3320 0.0000 -21074.9768 3247.9723 0.0000 0.0000 2151.0911 -15636.5161 215.6546 -17787.6072 -15632.2331 210.1691 462.3071 523.0516 48160.9157 3.2939 3.4911
ENERGY: 225000 1.4853 8.4602 29.0207 0.0000 -20922.6249 3119.0523 0.0000 0.0000 2137.6759 -15626.9306 214.3097 -17764.6065 -15621.5538 211.0420 -333.5504 -279.6183 48879.2354 0.7994 1.1117
TCL: Running 50000 steps at 240 kelvin.
TCL: Setting parameter langevinTemp to 240
TCL: Running for 50000 steps
ETITLE: TS BOND ANGLE DIHED IMPRP ELECT VDW BOUNDARY MISC KINETIC TOTAL TEMP POTENTIAL TOTAL3 TEMPAVG PRESSURE GPRESSURE VOLUME PRESSAVG GPRESSAVG
ENERGY: 225000 1.4853 8.4602 29.0207 0.0000 -20922.6249 3119.0523 0.0000 0.0000 2136.6825 -15627.9240 214.2101 -17764.6065 -15623.9661 214.2101 -354.1164 -279.9948 48879.2354 -354.1164 -279.9948
ENERGY: 235000 2.8052 7.8597 30.2223 0.0000 -20035.7404 2913.2557 0.0000 0.0000 2400.8700 -14680.7273 240.6958 -17081.5974 -14674.1549 241.0854 -202.9760 -103.8681 50126.8234 2.0766 2.0804
ENERGY: 245000 2.6863 7.9372 29.3623 0.0000 -20242.5360 3072.4278 0.0000 0.0000 2384.4113 -14745.7112 239.0458 -17130.1225 -14741.3916 239.8485 658.4116 711.8395 49280.9714 1.4843 1.2175
ENERGY: 255000 2.9778 5.8598 31.3640 0.0000 -20171.0833 2995.9727 0.0000 0.0000 2411.5121 -14723.3969 241.7627 -17134.9090 -14718.9327 239.7749 467.9175 570.9602 48801.1478 5.1345 5.2679
ENERGY: 265000 2.5431 8.9302 29.8676 0.0000 -20093.4729 2942.1193 0.0000 0.0000 2474.0248 -14635.9879 248.0299 -17110.0127 -14629.7437 240.4475 -68.0412 33.8548 49816.9633 3.1816 2.3766
ENERGY: 275000 2.2050 9.5777 32.4411 0.0000 -20013.7026 2862.2260 0.0000 0.0000 2429.5543 -14677.6985 243.5715 -17107.2528 -14672.4608 240.0689 -242.0742 -150.7221 49513.9102 -2.6161 -3.0295
TCL: Running 50000 steps at 270 kelvin.
TCL: Setting parameter langevinTemp to 270
TCL: Running for 50000 steps
ETITLE: TS BOND ANGLE DIHED IMPRP ELECT VDW BOUNDARY MISC KINETIC TOTAL TEMP POTENTIAL TOTAL3 TEMPAVG PRESSURE GPRESSURE VOLUME PRESSAVG GPRESSAVG
ENERGY: 275000 2.2050 9.5777 32.4411 0.0000 -20013.7026 2862.2260 0.0000 0.0000 2428.3782 -14678.8747 243.4536 -17107.2528 -14674.9414 243.4536 -230.2764 -149.5782 49513.9102 -230.2764 -149.5782
ENERGY: 285000 2.0678 7.2226 32.0769 0.0000 -19128.7378 2667.3499 0.0000 0.0000 2700.1933 -13719.8273 270.7041 -16420.0206 -13713.3975 269.3726 68.8171 156.4867 49837.1343 1.5790 1.5592
ENERGY: 295000 1.0816 13.0278 28.9442 0.0000 -19241.0041 2743.8192 0.0000 0.0000 2703.1943 -13750.9370 271.0049 -16454.1313 -13746.9270 269.5392 319.6413 403.5088 50002.9146 4.1090 3.6850
ENERGY: 305000 1.9746 13.8868 29.3588 0.0000 -18974.4611 2574.2073 0.0000 0.0000 2717.8976 -13637.1360 272.4790 -16355.0336 -13630.6257 268.4290 -453.5586 -376.3310 50453.9490 -2.0837 -2.5596
ENERGY: 315000 1.9016 8.8974 29.4519 0.0000 -19082.6653 2691.2564 0.0000 0.0000 2665.5776 -13685.5804 267.2337 -16351.1580 -13678.5005 269.6719 -110.3764 -17.3333 51098.9808 -0.0448 0.3361
ENERGY: 325000 1.0465 8.6669 31.0884 0.0000 -19105.3246 2683.1660 0.0000 0.0000 2712.7369 -13668.6201 271.9616 -16381.3570 -13661.7423 270.1942 275.5551 374.3547 49691.8700 1.3141 1.3362
TCL: Running 1000000 steps at 300 kelvin.
TCL: Setting parameter langevinTemp to 300
TCL: Running for 1000000 steps
ETITLE: TS BOND ANGLE DIHED IMPRP ELECT VDW BOUNDARY MISC KINETIC TOTAL TEMP POTENTIAL TOTAL3 TEMPAVG PRESSURE GPRESSURE VOLUME PRESSAVG GPRESSAVG
ENERGY: 325000 1.0465 8.6669 31.0884 0.0000 -19105.3246 2683.1660 0.0000 0.0000 2711.3919 -13669.9651 271.8268 -16381.3570 -13665.7855 271.8268 280.4904 375.5973 49691.8700 280.4904 375.5973
ENERGY: 525000 2.4534 20.9650 31.6427 0.0000 -18437.6814 2600.1487 0.0000 0.0000 2948.0604 -12834.4112 295.5536 -15782.4717 -12829.7202 299.5068 412.1880 487.2930 51601.7856 0.0432 -0.5194
ENERGY: 725000 6.0781 14.6069 28.6298 0.0000 -18126.0819 2391.6118 0.0000 0.0000 3045.8578 -12639.2974 305.3582 -15685.1553 -12632.4375 300.0841 -16.9465 85.6960 51099.4727 -0.4257 -0.5045
ENERGY: 925000 5.2191 10.3510 31.1378 0.0000 -18136.3720 2503.4690 0.0000 0.0000 2956.4240 -12629.7711 296.3921 -15586.1951 -12626.6452 298.0686 466.0088 520.4856 51613.0749 3.6919 3.6047
ENERGY: 1125000 2.8927 12.2840 31.8526 0.0000 -18382.3558 2646.2059 0.0000 0.0000 2958.3841 -12730.7365 296.5886 -15689.1206 -12721.5165 299.0410 986.8110 1089.6291 51215.1707 0.3780 0.6482
ENERGY: 1325000 6.5989 14.0485 30.6268 0.0000 -18198.9910 2415.4320 0.0000 0.0000 2993.7234 -12738.5614 300.1315 -15732.2848 -12734.3040 298.0205 -111.1173 -30.9029 51311.8628 1.3131 1.9635
TCL: Exiting due to exit command.
