Info: SIMULATION PARAMETERS:
Info: TIMESTEP               2
Info: NUMBER OF STEPS        0
Info: STEPS PER CYCLE        10
Info: PERIODIC CELL BASIS 1  36.005 0 0
Info: PERIODIC CELL BASIS 2  0 34.26 0
Info: PERIODIC CELL BASIS 3  0 0 35.566
Info: PERIODIC CELL CENTER   0 0 0
Info: WRAPPING WATERS AROUND PERIODIC BOUNDARIES ON OUTPUT.
Info: WRAPPING ALL CLUSTERS AROUND PERIODIC BOUNDARIES ON OUTPUT.
Info: FIRST LDB TIMESTEP     50
Info: LAST LDB TIMESTEP     -1
Info: HOM BACKGROUND SCALING 1
Info: PME BACKGROUND SCALING 1
Info: MIN ATOMS PER PATCH    40
Info: EMPTY PATCH LOAD       40 ATOMS
Info: INITIAL TEMPERATURE    300
Info: CENTER OF MASS MOVING INITIALLY? NO
Info: DIELECTRIC             1
Info: EXCLUDE                SCALED ONE-FOUR
Info: 1-4 ELECTROSTATICS SCALED BY 0.833333
Info: MODIFIED 1-4 VDW PARAMETERS WILL BE USED
Info: DCD FILENAME           mobley_9979854_equil.dcd
Info: DCD FREQUENCY          100000
Info: DCD FIRST STEP         100000
Info: DCD FILE WILL CONTAIN UNIT CELL DATA
Info: XST FILENAME           mobley_9979854_equil.xst
Info: XST FREQUENCY          100000
Info: NO VELOCITY DCD OUTPUT
Info: NO FORCE DCD OUTPUT
Info: OUTPUT FILENAME        mobley_9979854_equil
Info: BINARY OUTPUT FILES WILL BE USED
Info: RESTART FILENAME       mobley_9979854_equil.restart
Info: RESTART FREQUENCY      100000
Info: BINARY RESTART FILES WILL BE USED
Info: CUTOFF                 9
Info: PAIRLIST DISTANCE      11
Info: PAIRLIST SHRINK RATE   0.01
Info: PAIRLIST GROW RATE     0.01
Info: PAIRLIST TRIGGER       0.3
Info: PAIRLISTS PER CYCLE    2
Info: PAIRLISTS ENABLED
Info: MARGIN                 8
Info: HYDROGEN GROUP CUTOFF  2.5
Info: PATCH DIMENSION        21.5
Info: ENERGY OUTPUT STEPS    100000
Info: ENERGY EVALUATION STEPS    100000
Info: OUTPUT ENERGY PRECISION 4
Info: CROSSTERM ENERGY INCLUDED IN DIHEDRAL
Info: TIMING OUTPUT STEPS    1000000
Info: PRESSURE OUTPUT STEPS  100000
Info: FIXED ATOMS ACTIVE
Info: LANGEVIN DYNAMICS ACTIVE
Info: LANGEVIN TEMPERATURE   30
Info: LANGEVIN USING BBK INTEGRATOR
Info: LANGEVIN DAMPING COEFFICIENT IS 1 INVERSE PS
Info: LANGEVIN DYNAMICS APPLIED TO HYDROGENS
Info: LANGEVIN PISTON PRESSURE CONTROL ACTIVE
Info:        TARGET PRESSURE IS 1.01325 BAR
Info:     OSCILLATION PERIOD IS 50 FS
Info:             DECAY TIME IS 25 FS
Info:     PISTON TEMPERATURE IS 300 K
Info:       PRESSURE CONTROL IS GROUP-BASED
Info:    INITIAL STRAIN RATE IS 0 0 0
Info:       CELL FLUCTUATION IS ISOTROPIC
Info: PARTICLE MESH EWALD (PME) ACTIVE
Info: PME TOLERANCE               1e-06
Info: PME EWALD COEFFICIENT       0.348832
Info: PME INTERPOLATION ORDER     4
Info: PME GRID DIMENSIONS         40 36 36
Info: PME MAXIMUM GRID SPACING    1
Info: FULL ELECTROSTATIC EVALUATION FREQUENCY      2
Info: USING VERLET I (r-RESPA) MTS SCHEME.
Info: C1 SPLITTING OF LONG RANGE ELECTROSTATICS
Info: PLACING ATOMS IN PATCHES BY HYDROGEN GROUPS
Info: RIGID BONDS TO HYDROGEN : ALL
Info:         ERROR TOLERANCE : 1e-08
Info:          MAX ITERATIONS : 100
Info: RIGID WATER USING SETTLE ALGORITHM
Info: RANDOM NUMBER SEED     1742540429
Info: USE HYDROGEN BONDS?    NO
Info: Using AMBER format force field!
Info: AMBER PARM FILE        mobley_9979854.prmtop
Info: COORDINATE PDB         mobley_9979854.pdb
Info: Exclusions will be read from PARM file!
Info: SCNB (VDW SCALING)     2
Info: USING ARITHMETIC MEAN TO COMBINE L-J SIGMA PARAMETERS
Info: BINARY COORDINATES     mobley_9979854_min.coor
Info: SUMMARY OF PARAMETERS:
Info: 8 BONDS
Info: 9 ANGLES
Info:   9 HARMONIC
Info:   0 COSINE-BASED
Info: 7 DIHEDRAL
Info: 0 IMPROPER
Info: 0 CROSSTERM
Info: 0 VDW
Info: 36 VDW_PAIRS
Info: 0 NBTHOLE_PAIRS
Info: STRUCTURE SUMMARY:
Info: 2910 ATOMS
Info: 2909 BONDS
Info: 19 ANGLES
Info: 24 DIHEDRALS
Info: 0 IMPROPERS
Info: 0 CROSSTERMS
Info: 2949 EXCLUSIONS
Info: 12 FIXED ATOMS
Info: 2903 RIGID BONDS
Info: 5 RIGID BONDS BETWEEN FIXED ATOMS
Info: 5796 DEGREES OF FREEDOM
Info: 973 HYDROGEN GROUPS
Info: 4 ATOMS IN LARGEST HYDROGEN GROUP
Info: 973 MIGRATION GROUPS
Info: 4 ATOMS IN LARGEST MIGRATION GROUP
Info: 7 HYDROGEN GROUPS WITH ALL ATOMS FIXED
Info: TOTAL MASS = 17517.5 amu
Info: TOTAL CHARGE = 0.000199988 e
Info: MASS DENSITY = 0.663051 g/cm^3
Info: ATOM DENSITY = 0.0663297 atoms/A^3
Info: ADDED 0 IMPLICIT EXCLUSIONS
Info: NONBONDED TABLE R-SQUARED SPACING: 0.0625
Info: NONBONDED TABLE SIZE: 705 POINTS
Info: REMOVING COM VELOCITY -0.00825716 0.075213 0.146089
TCL: Running for 100000 steps
ETITLE: TS BOND ANGLE DIHED IMPRP ELECT VDW BOUNDARY MISC KINETIC TOTAL TEMP POTENTIAL TOTAL3 TEMPAVG PRESSURE GPRESSURE VOLUME PRESSAVG GPRESSAVG
ENERGY: 0 0.0000 0.0000 0.0000 0.0000 -13516.4607 2345.1668 0.0000 0.0000 1775.3690 -9395.9249 308.2838 -11171.2939 -9395.5655 308.2838 373.1774 401.8015 43871.7742 373.1774 401.8015
ENERGY: 100000 0.0000 0.0000 0.0000 0.0000 -14237.0622 2543.2830 0.0000 0.0000 173.0268 -11520.7524 30.0452 -11693.7792 -11520.2978 30.9489 935.4082 971.0614 28058.7999 4.2748 4.2682
TCL: Running 100000 steps at 60 kelvin.
TCL: Setting parameter langevinTemp to 60
TCL: Running for 100000 steps
ETITLE: TS BOND ANGLE DIHED IMPRP ELECT VDW BOUNDARY MISC KINETIC TOTAL TEMP POTENTIAL TOTAL3 TEMPAVG PRESSURE GPRESSURE VOLUME PRESSAVG GPRESSAVG
ENERGY: 100000 0.0000 0.0000 0.0000 0.0000 -14237.0622 2543.2830 0.0000 0.0000 172.9399 -11520.8393 30.0301 -11693.7792 -11520.4747 30.0301 916.7532 970.9757 28058.7999 916.7532 970.9757
ENERGY: 200000 0.0000 0.0000 0.0000 0.0000 -13900.3061 2285.0220 0.0000 0.0000 342.4390 -11272.8452 59.4628 -11615.2841 -11272.0219 59.9098 -1071.0186 -998.1125 28322.6322 4.2501 4.2413
TCL: Running 100000 steps at 90 kelvin.
TCL: Setting parameter langevinTemp to 90
TCL: Running for 100000 steps
ETITLE: TS BOND ANGLE DIHED IMPRP ELECT VDW BOUNDARY MISC KINETIC TOTAL TEMP POTENTIAL TOTAL3 TEMPAVG PRESSURE GPRESSURE VOLUME PRESSAVG GPRESSAVG
ENERGY: 200000 0.0000 0.0000 0.0000 0.0000 -13900.3061 2285.0220 0.0000 0.0000 342.2641 -11273.0200 59.4324 -11615.2841 -11272.2716 59.4324 -1049.0001 -998.4885 28322.6322 -1049.0001 -998.4885
ENERGY: 300000 0.0000 0.0000 0.0000 0.0000 -13823.3194 2309.6389 0.0000 0.0000 526.6719 -10987.0086 91.4539 -11513.6805 -10985.8674 89.8048 -439.9832 -406.2448 28261.5425 3.6309 3.5962
TCL: Running 100000 steps at 120 kelvin.
TCL: Setting parameter langevinTemp to 120
TCL: Running for 100000 steps
ETITLE: TS BOND ANGLE DIHED IMPRP ELECT VDW BOUNDARY MISC KINETIC TOTAL TEMP POTENTIAL TOTAL3 TEMPAVG PRESSURE GPRESSURE VOLUME PRESSAVG GPRESSAVG
ENERGY: 300000 0.0000 0.0000 0.0000 0.0000 -13823.3194 2309.6389 0.0000 0.0000 526.4150 -10987.2655 91.4093 -11513.6805 -10986.1209 91.4093 -466.7071 -406.3286 28261.5425 -466.7071 -406.3286
ENERGY: 400000 0.0000 0.0000 0.0000 0.0000 -13630.2829 2257.7443 0.0000 0.0000 718.7297 -10653.8088 124.8037 -11372.5385 -10651.9041 120.2282 -254.2164 -213.5000 28248.4513 2.2667 2.2874
TCL: Running 100000 steps at 150 kelvin.
TCL: Setting parameter langevinTemp to 150
TCL: Running for 100000 steps
ETITLE: TS BOND ANGLE DIHED IMPRP ELECT VDW BOUNDARY MISC KINETIC TOTAL TEMP POTENTIAL TOTAL3 TEMPAVG PRESSURE GPRESSURE VOLUME PRESSAVG GPRESSAVG
ENERGY: 400000 0.0000 0.0000 0.0000 0.0000 -13630.2829 2257.7443 0.0000 0.0000 718.3885 -10654.1500 124.7445 -11372.5385 -10652.5817 124.7445 -270.2098 -213.3259 28248.4513 -270.2098 -213.3259
ENERGY: 500000 0.0000 0.0000 0.0000 0.0000 -13244.6579 2049.0733 0.0000 0.0000 847.2323 -10348.3523 147.1176 -11195.5846 -10344.1735 149.8621 -1480.8268 -1428.7098 28623.2543 3.2640 3.3824
TCL: Running 100000 steps at 180 kelvin.
TCL: Setting parameter langevinTemp to 180
TCL: Running for 100000 steps
ETITLE: TS BOND ANGLE DIHED IMPRP ELECT VDW BOUNDARY MISC KINETIC TOTAL TEMP POTENTIAL TOTAL3 TEMPAVG PRESSURE GPRESSURE VOLUME PRESSAVG GPRESSAVG
ENERGY: 500000 0.0000 0.0000 0.0000 0.0000 -13244.6579 2049.0733 0.0000 0.0000 846.7985 -10348.7862 147.0422 -11195.5846 -10347.3036 147.0422 -1485.7693 -1426.1174 28623.2543 -1485.7693 -1426.1174
ENERGY: 600000 0.0000 0.0000 0.0000 0.0000 -13050.8419 2118.3577 0.0000 0.0000 1067.6604 -9864.8238 185.3938 -10932.4843 -9862.6238 179.8497 56.4468 116.1064 28691.9131 4.4913 4.4068
TCL: Running 100000 steps at 210 kelvin.
TCL: Setting parameter langevinTemp to 210
TCL: Running for 100000 steps
ETITLE: TS BOND ANGLE DIHED IMPRP ELECT VDW BOUNDARY MISC KINETIC TOTAL TEMP POTENTIAL TOTAL3 TEMPAVG PRESSURE GPRESSURE VOLUME PRESSAVG GPRESSAVG
ENERGY: 600000 0.0000 0.0000 0.0000 0.0000 -13050.8419 2118.3577 0.0000 0.0000 1067.1364 -9865.3479 185.3028 -10932.4843 -9863.5544 185.3028 57.3105 117.1417 28691.9131 57.3105 117.1417
ENERGY: 700000 0.0000 0.0000 0.0000 0.0000 -12200.3182 1746.8075 0.0000 0.0000 1215.9219 -9237.5887 211.1386 -10453.5106 -9235.1531 209.9759 -1053.2355 -1003.2320 28573.3635 3.6290 3.6206
TCL: Running 100000 steps at 240 kelvin.
TCL: Setting parameter langevinTemp to 240
TCL: Running for 100000 steps
ETITLE: TS BOND ANGLE DIHED IMPRP ELECT VDW BOUNDARY MISC KINETIC TOTAL TEMP POTENTIAL TOTAL3 TEMPAVG PRESSURE GPRESSURE VOLUME PRESSAVG GPRESSAVG
ENERGY: 700000 0.0000 0.0000 0.0000 0.0000 -12200.3182 1746.8075 0.0000 0.0000 1215.3186 -9238.1921 211.0339 -10453.5106 -9235.6391 211.0339 -1074.5823 -1004.1486 28573.3635 -1074.5823 -1004.1486
ENERGY: 800000 0.0000 0.0000 0.0000 0.0000 -11602.0195 1591.9398 0.0000 0.0000 1365.7698 -8644.3099 237.1590 -10010.0797 -8643.1646 240.2150 -1055.6522 -909.7348 29010.0930 3.8422 3.8271
TCL: Running 100000 steps at 270 kelvin.
TCL: Setting parameter langevinTemp to 270
TCL: Running for 100000 steps
ETITLE: TS BOND ANGLE DIHED IMPRP ELECT VDW BOUNDARY MISC KINETIC TOTAL TEMP POTENTIAL TOTAL3 TEMPAVG PRESSURE GPRESSURE VOLUME PRESSAVG GPRESSAVG
ENERGY: 800000 0.0000 0.0000 0.0000 0.0000 -11602.0195 1591.9398 0.0000 0.0000 1365.1075 -8644.9722 237.0439 -10010.0797 -8642.5475 237.0439 -989.4856 -912.3583 29010.0930 -989.4856 -912.3583
ENERGY: 900000 0.0000 0.0000 0.0000 0.0000 -11069.3073 1511.1862 0.0000 0.0000 1572.8298 -7985.2913 273.1139 -9558.1211 -7983.5147 270.1402 -387.2848 -269.1092 29654.8060 4.1255 4.0141
TCL: Running 1000000 steps at 300 kelvin.
TCL: Setting parameter langevinTemp to 300
TCL: Running for 1000000 steps
ETITLE: TS BOND ANGLE DIHED IMPRP ELECT VDW BOUNDARY MISC KINETIC TOTAL TEMP POTENTIAL TOTAL3 TEMPAVG PRESSURE GPRESSURE VOLUME PRESSAVG GPRESSAVG
ENERGY: 900000 0.0000 0.0000 0.0000 0.0000 -11069.3073 1511.1862 0.0000 0.0000 1572.0904 -7986.0307 272.9855 -9558.1211 -7983.9695 272.9855 -366.3897 -270.6669 29654.8060 -366.3897 -270.6669
ENERGY: 1100000 0.0000 0.0000 0.0000 0.0000 -10591.8458 1387.7453 0.0000 0.0000 1732.9699 -7471.1305 300.9214 -9204.1005 -7468.8781 300.1457 -448.5832 -383.0089 30309.8407 3.3742 3.3195
ENERGY: 1300000 0.0000 0.0000 0.0000 0.0000 -10638.8144 1400.2986 0.0000 0.0000 1669.3647 -7569.1511 289.8767 -9238.5158 -7568.5543 300.9580 -284.7069 -197.8212 29980.9226 4.0090 3.8066
ENERGY: 1500000 0.0000 0.0000 0.0000 0.0000 -10618.0654 1430.1792 0.0000 0.0000 1743.7612 -7444.1250 302.7952 -9187.8862 -7439.3795 300.6169 185.0228 196.6061 30030.3025 3.2393 3.3450
ENERGY: 1700000 0.0000 0.0000 0.0000 0.0000 -10602.8227 1390.9377 0.0000 0.0000 1759.8840 -7452.0010 305.5949 -9211.8850 -7449.7232 300.1320 6.0281 56.1516 29903.7962 4.3128 4.2522
ENERGY: 1900000 0.0000 0.0000 0.0000 0.0000 -10692.5925 1458.7745 0.0000 0.0000 1730.0601 -7503.7579 300.4161 -9233.8180 -7499.5426 300.5728 186.2832 237.7651 29976.9390 2.6065 2.6476
TCL: Exiting due to exit command.
