Info: SIMULATION PARAMETERS:
Info: TIMESTEP               2
Info: NUMBER OF STEPS        0
Info: STEPS PER CYCLE        10
Info: PERIODIC CELL BASIS 1  32.0062 0 0
Info: PERIODIC CELL BASIS 2  0 30.0822 0
Info: PERIODIC CELL BASIS 3  0 0 31.9338
Info: PERIODIC CELL CENTER   0 0 0
Info: WRAPPING WATERS AROUND PERIODIC BOUNDARIES ON OUTPUT.
Info: WRAPPING ALL CLUSTERS AROUND PERIODIC BOUNDARIES ON OUTPUT.
Info: FIRST LDB TIMESTEP     50
Info: LAST LDB TIMESTEP     -1
Info: HOM BACKGROUND SCALING 1
Info: PME BACKGROUND SCALING 1
Info: MIN ATOMS PER PATCH    40
Info: EMPTY PATCH LOAD       40 ATOMS
Info: VELOCITY FILE          mobley_2681549_equil.vel
Info: CENTER OF MASS MOVING INITIALLY? NO
Info: DIELECTRIC             1
Info: EXCLUDE                SCALED ONE-FOUR
Info: 1-4 ELECTROSTATICS SCALED BY 0.833333
Info: MODIFIED 1-4 VDW PARAMETERS WILL BE USED
Info: DCD FILENAME           mobley_2681549_prod.dcd
Info: DCD FREQUENCY          100000
Info: DCD FIRST STEP         100000
Info: DCD FILE WILL CONTAIN UNIT CELL DATA
Info: XST FILENAME           mobley_2681549_prod.xst
Info: XST FREQUENCY          100000
Info: NO VELOCITY DCD OUTPUT
Info: NO FORCE DCD OUTPUT
Info: OUTPUT FILENAME        mobley_2681549_prod
Info: BINARY OUTPUT FILES WILL BE USED
Info: RESTART FILENAME       mobley_2681549_prod.restart
Info: RESTART FREQUENCY      100000
Info: BINARY RESTART FILES WILL BE USED
Info: CUTOFF                 9
Info: PAIRLIST DISTANCE      11
Info: PAIRLIST SHRINK RATE   0.01
Info: PAIRLIST GROW RATE     0.01
Info: PAIRLIST TRIGGER       0.3
Info: PAIRLISTS PER CYCLE    2
Info: PAIRLISTS ENABLED
Info: MARGIN                 2
Info: HYDROGEN GROUP CUTOFF  2.5
Info: PATCH DIMENSION        15.5
Info: ENERGY OUTPUT STEPS    100000
Info: ENERGY EVALUATION STEPS    100000
Info: OUTPUT ENERGY PRECISION 4
Info: CROSSTERM ENERGY INCLUDED IN DIHEDRAL
Info: TIMING OUTPUT STEPS    1000000
Info: PRESSURE OUTPUT STEPS  100000
Info: ALCHEMICAL FEP ON
Info: FEP CURRENT LAMBDA VALUE     1
Info: FEP COMPARISON LAMBDA VALUE  0.95
Info: FEP INTRA-ALCHEMICAL NON-BONDED INTERACTIONS WILL BE RETAINED
Info: FEP INTRA-ALCHEMICAL BONDED INTERACTIONS WILL BE RETAINED
Info: FEP VDW SHIFTING COEFFICIENT 5
Info: FEP ELEC. ACTIVE FOR ANNIHILATED PARTICLES BETWEEN LAMBDA = 0 AND LAMBDA = 0.5
Info: FEP ELEC. ACTIVE FOR EXNIHILATED PARTICLES BETWEEN LAMBDA = 0.5 AND LAMBDA = 1
Info: FEP VDW ACTIVE FOR ANNIHILATED PARTICLES BETWEEN LAMBDA = 0 AND LAMBDA = 1
Info: FEP VDW ACTIVE FOR EXNIHILATED PARTICLES BETWEEN LAMBDA = 0 AND LAMBDA = 1
Info: FEP BOND ACTIVE FOR ANNIHILATED PARTICLES BETWEEN LAMBDA = 1 AND LAMBDA = 1
Info: FEP BOND ACTIVE FOR EXNIHILATED PARTICLES BETWEEN LAMBDA = 0 AND LAMBDA = 0
Info: LANGEVIN DYNAMICS ACTIVE
Info: LANGEVIN TEMPERATURE   300
Info: LANGEVIN USING BBK INTEGRATOR
Info: LANGEVIN DAMPING COEFFICIENT IS 1 INVERSE PS
Info: LANGEVIN DYNAMICS APPLIED TO HYDROGENS
Info: LANGEVIN PISTON PRESSURE CONTROL ACTIVE
Info:        TARGET PRESSURE IS 1.01325 BAR
Info:     OSCILLATION PERIOD IS 50 FS
Info:             DECAY TIME IS 25 FS
Info:     PISTON TEMPERATURE IS 300 K
Info:       PRESSURE CONTROL IS GROUP-BASED
Info:    INITIAL STRAIN RATE IS -0.000254323 -0.000254323 -0.000254323
Info:       CELL FLUCTUATION IS ISOTROPIC
Info: PARTICLE MESH EWALD (PME) ACTIVE
Info: PME TOLERANCE               1e-06
Info: PME EWALD COEFFICIENT       0.348832
Info: PME INTERPOLATION ORDER     4
Info: PME GRID DIMENSIONS         36 32 32
Info: PME MAXIMUM GRID SPACING    1
Info: PME CALCULATION WILL BE PERFORMED ON GPU
Info: FULL ELECTROSTATIC EVALUATION FREQUENCY      2
Info: USING VERLET I (r-RESPA) MTS SCHEME.
Info: C1 SPLITTING OF LONG RANGE ELECTROSTATICS
Info: PLACING ATOMS IN PATCHES BY HYDROGEN GROUPS
Info: RIGID BONDS TO HYDROGEN : ALL
Info:         ERROR TOLERANCE : 1e-08
Info:          MAX ITERATIONS : 100
Info: RIGID WATER USING SETTLE ALGORITHM
Info: RANDOM NUMBER SEED     1742170036
Info: USE HYDROGEN BONDS?    NO
Info: Using AMBER format force field!
Info: AMBER PARM FILE        mobley_2681549.prmtop
Info: COORDINATE PDB         mobley_2681549.pdb
Info: Exclusions will be read from PARM file!
Info: SCNB (VDW SCALING)     2
Info: USING ARITHMETIC MEAN TO COMBINE L-J SIGMA PARAMETERS
Info: BINARY COORDINATES     mobley_2681549_equil.coor
Info: SUMMARY OF PARAMETERS:
Info: 5 BONDS
Info: 3 ANGLES
Info:   3 HARMONIC
Info:   0 COSINE-BASED
Info: 2 DIHEDRAL
Info: 0 IMPROPER
Info: 0 CROSSTERM
Info: 0 VDW
Info: 15 VDW_PAIRS
Info: 0 NBTHOLE_PAIRS
Info: To read alchdata from file: mobley_2681549.pdb
Info: To read alchflag data from column: 5
Info: STRUCTURE SUMMARY:
Info: 2991 ATOMS
Info: 2991 BONDS
Info: 18 ANGLES
Info: 30 DIHEDRALS
Info: 0 IMPROPERS
Info: 0 CROSSTERMS
Info: 3030 EXCLUSIONS
Info: 2982 RIGID BONDS
Info: ALCH: 0 ATOMS TO DISAPPEAR IN FINAL STATE
Info: ALCH: 12 ATOMS TO APPEAR IN FINAL STATE
Info: 5991 DEGREES OF FREEDOM
Info: 1002 HYDROGEN GROUPS
Info: 3 ATOMS IN LARGEST HYDROGEN GROUP
Info: 1002 MIGRATION GROUPS
Info: 3 ATOMS IN LARGEST MIGRATION GROUP
Info: TOTAL MASS = 18071.3 amu
Info: TOTAL CHARGE = 0.000199992 e
Info: MASS DENSITY = 0.976012 g/cm^3
Info: ATOM DENSITY = 0.0972797 atoms/A^3
Info: ADDED 0 IMPLICIT EXCLUSIONS
Info: NONBONDED TABLE R-SQUARED SPACING: 0.0625
Info: NONBONDED TABLE SIZE: 705 POINTS
Info: REMOVING COM VELOCITY -0.102 0.100581 0.0490189
Info: Use 3D box decompostion in PME FFT.
Info: Updated CUDA force table with 4096 elements.
Info: Updated CUDA LJ table with 5 x 5 elements.
Info: Found 14 unique exclusion lists needing 24 bytes
TCL: Running for 1500000 steps
ETITLE: TS BOND ANGLE DIHED IMPRP ELECT VDW BOUNDARY MISC KINETIC TOTAL TEMP POTENTIAL TOTALAVG TEMPAVG PRESSURE GPRESSURE VOLUME PRESSAVG GPRESSAVG
ENERGY: 0 1.8823 4.1217 2.0469 0.0000 -10781.6261 1344.1231 0.0000 0.0000 1849.7230 -7579.7291 310.7404 -9429.4521 -7579.7291 310.7404 -913.0909 -824.2721 30746.3960 -913.0909 -824.2721
ENERGY: 300000 3.2105 2.9364 2.7838 0.0000 -10848.0887 1420.1884 0.0000 0.0000 1778.1916 -7640.7780 298.7237 -9418.9697 -7597.5447 304.6859 -318.4940 -284.5303 30672.6851 -603.4662 -570.0355
ENERGY: 600000 3.3823 0.4038 1.6461 0.0000 -10936.4069 1473.7490 0.0000 0.0000 1802.5916 -7654.6340 302.8227 -9457.2256 -7589.9053 302.8780 -105.5395 -35.3378 30707.6449 -208.5667 -155.6442
ENERGY: 900000 3.5411 3.1344 2.4958 0.0000 -10861.2376 1425.4733 0.0000 0.0000 1783.5761 -7643.0170 299.6282 -9426.5930 -7595.6644 301.1550 -441.6833 -369.1954 30954.4742 -167.3698 -118.7521
ENERGY: 1200000 2.2051 1.6074 5.7443 0.0000 -10680.3184 1359.5447 0.0000 0.0000 1802.3809 -7508.8360 302.7873 -9311.2169 -7588.2558 301.2409 -229.3032 -128.4992 30796.2687 -218.2617 -162.1491
ENERGY: 1500000 0.1067 3.0367 1.1173 0.0000 -10785.8619 1420.9955 0.0000 0.0000 1827.1621 -7533.4437 306.9504 -9360.6057 -7588.5063 301.7499 -59.4165 -50.8650 31064.2629 -191.7065 -146.6833
TCL: Running FEP window   2: Lambda1 0.95   Lambda2 0.8999999999999999 [dLambda -0.050000000000000044]
TCL: Setting parameter firsttimestep to 0
TCL: Setting parameter alchLambda to 0.95
Info: NONBONDED TABLE R-SQUARED SPACING: 0.0625
Info: NONBONDED TABLE SIZE: 705 POINTS
TCL: Setting parameter alchLambda2 to 0.8999999999999999
Info: NONBONDED TABLE R-SQUARED SPACING: 0.0625
Info: NONBONDED TABLE SIZE: 705 POINTS
TCL: Running for 1500000 steps
ETITLE: TS BOND ANGLE DIHED IMPRP ELECT VDW BOUNDARY MISC KINETIC TOTAL TEMP POTENTIAL TOTALAVG TEMPAVG PRESSURE GPRESSURE VOLUME PRESSAVG GPRESSAVG
ENERGY: 0 0.1067 3.0367 1.1173 0.0000 -10785.5845 1421.2860 0.0000 0.0000 1826.2187 -7533.8191 306.7919 -9360.0378 -7533.8191 306.7919 -143.2548 -61.6180 31064.2629 -143.2548 -61.6180
ENERGY: 300000 4.9947 1.5971 1.1129 0.0000 -10765.6754 1424.4671 0.0000 0.0000 1810.3476 -7523.1561 304.1256 -9333.5037 -7566.1599 301.9893 -271.9525 -242.8126 31435.6181 -47.6982 10.3510
ENERGY: 600000 1.9189 4.9656 2.0809 0.0000 -10854.3865 1472.1104 0.0000 0.0000 1786.3229 -7586.9877 300.0897 -9373.3107 -7588.9166 299.8903 264.1956 343.6036 30820.1748 81.6418 145.7225
ENERGY: 900000 1.9569 6.0410 1.9993 0.0000 -10890.5148 1457.1196 0.0000 0.0000 1815.2575 -7608.1405 304.9505 -9423.3980 -7581.5889 301.4421 -367.2795 -298.2872 31299.3651 -144.4577 -77.5295
ENERGY: 1200000 2.9742 1.5079 1.5975 0.0000 -10870.8932 1457.9939 0.0000 0.0000 1789.5153 -7617.3044 300.6260 -9406.8197 -7583.6648 301.6650 -85.2492 -40.0045 30893.4737 -104.8811 -48.0442
ENERGY: 1500000 3.5939 3.9549 2.2286 0.0000 -10905.3733 1478.6567 0.0000 0.0000 1752.4446 -7664.4945 294.3983 -9416.9391 -7585.8800 300.5837 432.2721 472.5030 30682.6683 -19.3390 36.2249
TCL: Running FEP window   3: Lambda1 0.8999999999999999 Lambda2 0.8499999999999999 [dLambda -0.050000000000000044]
TCL: Setting parameter firsttimestep to 0
TCL: Setting parameter alchLambda to 0.8999999999999999
Info: NONBONDED TABLE R-SQUARED SPACING: 0.0625
Info: NONBONDED TABLE SIZE: 705 POINTS
TCL: Setting parameter alchLambda2 to 0.8499999999999999
Info: NONBONDED TABLE R-SQUARED SPACING: 0.0625
Info: NONBONDED TABLE SIZE: 705 POINTS
TCL: Running for 1500000 steps
ETITLE: TS BOND ANGLE DIHED IMPRP ELECT VDW BOUNDARY MISC KINETIC TOTAL TEMP POTENTIAL TOTALAVG TEMPAVG PRESSURE GPRESSURE VOLUME PRESSAVG GPRESSAVG
ENERGY: 0 3.5939 3.9549 2.2286 0.0000 -10905.0546 1478.7041 0.0000 0.0000 1751.5695 -7665.0036 294.2513 -9416.5731 -7665.0036 294.2513 381.6358 459.8483 30682.6683 381.6358 459.8483
ENERGY: 300000 4.2946 2.1477 1.4350 0.0000 -10779.2091 1380.9005 0.0000 0.0000 1745.1147 -7645.3165 293.1670 -9390.4312 -7628.5558 296.8077 -640.3337 -557.9063 31028.5351 -136.0477 -61.7834
ENERGY: 600000 2.8463 4.5978 3.4568 0.0000 -10805.6490 1447.9166 0.0000 0.0000 1784.5092 -7562.3224 299.7850 -9346.8315 -7615.7733 296.9095 57.8475 78.6074 30942.5002 -94.6420 -30.4972
ENERGY: 900000 2.8944 3.5381 1.6733 0.0000 -10805.1730 1428.0011 0.0000 0.0000 1809.8652 -7559.2009 304.0446 -9369.0661 -7610.1179 298.9672 -341.0092 -286.9768 31130.8594 -59.4022 -2.4628
ENERGY: 1200000 2.1264 2.5181 2.6774 0.0000 -10946.7902 1534.7264 0.0000 0.0000 1781.9829 -7622.7590 299.3606 -9404.7419 -7616.4007 298.1396 660.6981 753.1691 30636.8947 -20.5061 40.8473
ENERGY: 1500000 1.9883 3.9348 1.9496 0.0000 -10923.8948 1528.4337 0.0000 0.0000 1800.6063 -7586.9821 302.4892 -9387.5884 -7617.7953 298.9616 717.4012 801.1953 30848.7193 86.7344 151.3817
TCL: Running FEP window   4: Lambda1 0.8499999999999999 Lambda2 0.7999999999999998 [dLambda -0.050000000000000044]
TCL: Setting parameter firsttimestep to 0
TCL: Setting parameter alchLambda to 0.8499999999999999
Info: NONBONDED TABLE R-SQUARED SPACING: 0.0625
Info: NONBONDED TABLE SIZE: 705 POINTS
TCL: Setting parameter alchLambda2 to 0.7999999999999998
Info: NONBONDED TABLE R-SQUARED SPACING: 0.0625
Info: NONBONDED TABLE SIZE: 705 POINTS
TCL: Running for 1500000 steps
ETITLE: TS BOND ANGLE DIHED IMPRP ELECT VDW BOUNDARY MISC KINETIC TOTAL TEMP POTENTIAL TOTALAVG TEMPAVG PRESSURE GPRESSURE VOLUME PRESSAVG GPRESSAVG
ENERGY: 0 1.9883 3.9348 1.9496 0.0000 -10923.5734 1528.7287 0.0000 0.0000 1799.7199 -7587.2521 302.3403 -9386.9720 -7587.2521 302.3403 716.8453 794.6682 30848.7193 716.8453 794.6682
ENERGY: 300000 2.6731 3.8082 3.4956 0.0000 -10790.3078 1403.9315 0.0000 0.0000 1830.1728 -7546.2266 307.4561 -9376.3994 -7571.0502 301.0465 -316.5779 -137.6857 30521.6989 -123.7387 -25.9943
ENERGY: 600000 0.8374 2.9669 3.6452 0.0000 -10969.9642 1569.2577 0.0000 0.0000 1777.3382 -7615.9188 298.5803 -9393.2570 -7590.8842 299.3646 1070.1879 1151.1503 30437.4181 122.5221 201.9180
ENERGY: 900000 5.3166 2.7592 2.0351 0.0000 -10829.2393 1430.1102 0.0000 0.0000 1802.5074 -7586.5109 302.8085 -9389.0183 -7574.7326 300.8214 -262.5022 -148.4241 30988.9001 -125.7102 -41.1485
ENERGY: 1200000 2.3292 1.8580 2.5069 0.0000 -10844.2150 1490.9400 0.0000 0.0000 1819.8993 -7526.6816 305.7303 -9346.5810 -7583.5238 301.0150 79.3515 156.3817 31301.2531 7.4836 81.7148
ENERGY: 1500000 2.1535 3.1023 1.5207 0.0000 -10875.7586 1469.7295 0.0000 0.0000 1726.9405 -7672.3121 290.1138 -9399.2526 -7589.0053 300.5685 -333.6624 -199.0587 31280.6949 -25.1509 52.1671
TCL: Running FEP window   5: Lambda1 0.7999999999999998 Lambda2 0.7499999999999998 [dLambda -0.050000000000000044]
TCL: Setting parameter firsttimestep to 0
TCL: Setting parameter alchLambda to 0.7999999999999998
Info: NONBONDED TABLE R-SQUARED SPACING: 0.0625
Info: NONBONDED TABLE SIZE: 705 POINTS
TCL: Setting parameter alchLambda2 to 0.7499999999999998
Info: NONBONDED TABLE R-SQUARED SPACING: 0.0625
Info: NONBONDED TABLE SIZE: 705 POINTS
TCL: Running for 1500000 steps
ETITLE: TS BOND ANGLE DIHED IMPRP ELECT VDW BOUNDARY MISC KINETIC TOTAL TEMP POTENTIAL TOTALAVG TEMPAVG PRESSURE GPRESSURE VOLUME PRESSAVG GPRESSAVG
ENERGY: 0 2.1535 3.1023 1.5207 0.0000 -10875.7799 1470.3055 0.0000 0.0000 1726.0549 -7672.6430 289.9651 -9398.6979 -7672.6430 289.9651 -286.5372 -202.2250 31280.6949 -286.5372 -202.2250
ENERGY: 300000 4.3470 3.0369 4.2859 0.0000 -10900.6846 1518.9047 0.0000 0.0000 1785.0229 -7585.0872 299.8713 -9370.1102 -7635.1579 296.6130 427.5178 456.4691 30928.5691 367.7564 438.2576
ENERGY: 600000 4.6084 2.1280 4.0955 0.0000 -10802.9944 1389.6639 0.0000 0.0000 1804.0422 -7598.4566 303.0664 -9402.4988 -7636.2636 296.2370 -592.7228 -520.5961 30913.7036 134.4772 203.9466
ENERGY: 900000 2.8034 2.1298 2.4888 0.0000 -10856.0885 1448.8408 0.0000 0.0000 1840.8297 -7558.9960 309.2464 -9399.8256 -7624.8131 298.3441 -104.6203 -61.1735 30994.9469 -16.5388 42.5393
ENERGY: 1200000 1.4731 3.7638 2.7110 0.0000 -10856.6540 1443.6164 0.0000 0.0000 1801.7118 -7603.3779 302.6749 -9405.0897 -7627.1095 297.6883 14.8035 120.3587 30497.5656 37.5770 96.4644
ENERGY: 1500000 2.7601 4.8674 1.8283 0.0000 -10763.2929 1363.4158 0.0000 0.0000 1802.8840 -7587.5373 302.8718 -9390.4213 -7630.2872 297.8823 -719.1816 -620.1360 30900.7134 -30.3342 23.8771
TCL: Running FEP window   6: Lambda1 0.7499999999999998 Lambda2 0.6999999999999997 [dLambda -0.050000000000000044]
TCL: Setting parameter firsttimestep to 0
TCL: Setting parameter alchLambda to 0.7499999999999998
Info: NONBONDED TABLE R-SQUARED SPACING: 0.0625
Info: NONBONDED TABLE SIZE: 705 POINTS
TCL: Setting parameter alchLambda2 to 0.6999999999999997
Info: NONBONDED TABLE R-SQUARED SPACING: 0.0625
Info: NONBONDED TABLE SIZE: 705 POINTS
TCL: Running for 1500000 steps
ETITLE: TS BOND ANGLE DIHED IMPRP ELECT VDW BOUNDARY MISC KINETIC TOTAL TEMP POTENTIAL TOTALAVG TEMPAVG PRESSURE GPRESSURE VOLUME PRESSAVG GPRESSAVG
ENERGY: 0 2.7601 4.8674 1.8283 0.0000 -10763.1604 1364.0845 0.0000 0.0000 1802.0305 -7587.5895 302.7284 -9389.6200 -7587.5895 302.7284 -708.1772 -620.9324 30900.7134 -708.1772 -620.9324
ENERGY: 300000 2.1683 2.0677 2.2036 0.0000 -10842.6588 1486.0394 0.0000 0.0000 1804.3858 -7545.7939 303.1241 -9350.1797 -7615.3415 298.1883 111.7824 165.3465 30919.2352 -234.6219 -185.7825
ENERGY: 600000 1.4041 2.7178 2.2496 0.0000 -10802.8646 1413.3386 0.0000 0.0000 1755.8617 -7627.2927 294.9724 -9383.1544 -7593.6358 299.6799 -292.4551 -286.3332 30812.7201 -76.5994 -31.5199
ENERGY: 900000 3.3907 1.0055 1.6056 0.0000 -10950.8103 1501.2385 0.0000 0.0000 1800.4685 -7643.1014 302.4660 -9443.5699 -7618.2839 299.3222 129.5636 169.5088 30777.5415 -137.5402 -92.5574
ENERGY: 1200000 1.3066 2.5884 3.1901 0.0000 -10791.5973 1420.0522 0.0000 0.0000 1835.3745 -7529.0854 308.3300 -9364.4599 -7608.1580 300.2412 19.6221 96.8361 30719.0370 22.5491 65.4709
ENERGY: 1500000 2.6189 4.3383 2.6373 0.0000 -10832.5974 1478.8690 0.0000 0.0000 1768.2201 -7575.9139 297.0485 -9344.1339 -7610.9788 299.9850 219.0760 317.4065 30939.0847 74.7322 113.8832
TCL: Running FEP window   7: Lambda1 0.6999999999999997 Lambda2 0.6499999999999997 [dLambda -0.050000000000000044]
TCL: Setting parameter firsttimestep to 0
TCL: Setting parameter alchLambda to 0.6999999999999997
Info: NONBONDED TABLE R-SQUARED SPACING: 0.0625
Info: NONBONDED TABLE SIZE: 705 POINTS
TCL: Setting parameter alchLambda2 to 0.6499999999999997
Info: NONBONDED TABLE R-SQUARED SPACING: 0.0625
Info: NONBONDED TABLE SIZE: 705 POINTS
TCL: Running for 1500000 steps
ETITLE: TS BOND ANGLE DIHED IMPRP ELECT VDW BOUNDARY MISC KINETIC TOTAL TEMP POTENTIAL TOTALAVG TEMPAVG PRESSURE GPRESSURE VOLUME PRESSAVG GPRESSAVG
ENERGY: 0 2.6189 4.3383 2.6373 0.0000 -10832.2026 1478.2707 0.0000 0.0000 1767.3345 -7577.0029 296.8997 -9344.3374 -7577.0029 296.8997 217.6945 301.6979 30939.0847 217.6945 301.6979
ENERGY: 300000 3.0931 3.8393 1.8907 0.0000 -10713.6799 1355.6384 0.0000 0.0000 1752.2935 -7596.9248 294.3730 -9349.2183 -7611.5806 297.9651 -962.7576 -894.1513 31267.1217 42.0933 110.4569
ENERGY: 600000 4.2003 1.3676 3.0819 0.0000 -10852.5552 1464.1517 0.0000 0.0000 1754.0608 -7625.6930 294.6698 -9379.7537 -7609.5930 298.0448 -173.0531 -112.1855 31217.8148 -15.5584 39.2262
ENERGY: 900000 3.9434 4.6987 2.9159 0.0000 -10846.3723 1436.7510 0.0000 0.0000 1794.8397 -7603.2235 301.5204 -9398.0632 -7623.0877 298.8560 233.8609 223.7823 30205.1879 2.6874 58.1038
ENERGY: 1200000 2.3584 2.4892 2.4510 0.0000 -10691.9248 1289.8007 0.0000 0.0000 1783.6081 -7611.2173 299.6336 -9394.8255 -7623.6026 298.2066 -1238.9258 -1202.7904 30968.1787 -121.9661 -64.2331
ENERGY: 1500000 5.3007 1.0168 2.5517 0.0000 -10859.0876 1450.6216 0.0000 0.0000 1802.1944 -7597.4025 302.7560 -9399.5968 -7618.3989 298.4921 299.3090 317.5613 30275.6027 -61.4799 5.2966
TCL: Running FEP window   8: Lambda1 0.6499999999999997 Lambda2 0.5999999999999996 [dLambda -0.050000000000000044]
TCL: Setting parameter firsttimestep to 0
TCL: Setting parameter alchLambda to 0.6499999999999997
Info: NONBONDED TABLE R-SQUARED SPACING: 0.0625
Info: NONBONDED TABLE SIZE: 705 POINTS
TCL: Setting parameter alchLambda2 to 0.5999999999999996
Info: NONBONDED TABLE R-SQUARED SPACING: 0.0625
Info: NONBONDED TABLE SIZE: 705 POINTS
TCL: Running for 1500000 steps
ETITLE: TS BOND ANGLE DIHED IMPRP ELECT VDW BOUNDARY MISC KINETIC TOTAL TEMP POTENTIAL TOTALAVG TEMPAVG PRESSURE GPRESSURE VOLUME PRESSAVG GPRESSAVG
ENERGY: 0 5.3008 1.0168 2.5517 0.0000 -10858.9266 1450.8216 0.0000 0.0000 1801.3305 -7597.9054 302.6108 -9399.2358 -7597.9054 302.6108 224.4331 311.1121 30275.6027 224.4331 311.1121
ENERGY: 300000 4.8000 1.1578 1.8734 0.0000 -10868.0419 1462.5148 0.0000 0.0000 1764.5163 -7633.1796 296.4263 -9397.6960 -7635.3770 299.8177 6.3383 31.8930 30862.9922 -43.4825 20.0831
ENERGY: 600000 2.6186 3.8841 3.1130 0.0000 -11002.2342 1550.7752 0.0000 0.0000 1815.9530 -7625.8903 305.0673 -9441.8433 -7628.1985 299.4602 690.0270 738.6003 30628.0083 37.2211 106.5047
ENERGY: 900000 1.4306 1.3087 3.7021 0.0000 -10704.2605 1355.3602 0.0000 0.0000 1837.9583 -7504.5006 308.7640 -9342.4589 -7611.9491 300.5352 -698.8990 -687.6973 31110.1478 -124.1582 -77.0843
ENERGY: 1200000 5.8225 2.9522 0.5820 0.0000 -10885.0343 1455.9997 0.0000 0.0000 1764.3223 -7655.3555 296.3937 -9419.6778 -7606.0874 300.5184 -63.2699 55.6968 30688.3135 -59.9938 1.5439
ENERGY: 1500000 7.0498 0.8998 2.6618 0.0000 -10975.6849 1530.8913 0.0000 0.0000 1776.8675 -7657.3147 298.5012 -9434.1821 -7605.3275 300.0993 827.3309 867.0422 30332.3147 7.3389 66.9184
TCL: Running FEP window   9: Lambda1 0.5999999999999996 Lambda2 0.5499999999999996 [dLambda -0.050000000000000044]
TCL: Setting parameter firsttimestep to 0
TCL: Setting parameter alchLambda to 0.5999999999999996
Info: NONBONDED TABLE R-SQUARED SPACING: 0.0625
Info: NONBONDED TABLE SIZE: 705 POINTS
TCL: Setting parameter alchLambda2 to 0.5499999999999996
Info: NONBONDED TABLE R-SQUARED SPACING: 0.0625
Info: NONBONDED TABLE SIZE: 705 POINTS
TCL: Running for 1500000 steps
ETITLE: TS BOND ANGLE DIHED IMPRP ELECT VDW BOUNDARY MISC KINETIC TOTAL TEMP POTENTIAL TOTALAVG TEMPAVG PRESSURE GPRESSURE VOLUME PRESSAVG GPRESSAVG
ENERGY: 0 7.0498 0.8998 2.6618 0.0000 -10975.5311 1531.1106 0.0000 0.0000 1775.9638 -7657.8453 298.3494 -9433.8090 -7657.8453 298.3494 787.8103 862.2960 30332.3147 787.8103 862.2960
ENERGY: 300000 2.0146 2.8018 1.5378 0.0000 -10747.7874 1395.0804 0.0000 0.0000 1752.8721 -7593.4806 294.4702 -9346.3527 -7631.5514 295.4000 -143.4910 -99.7850 30756.1675 238.0615 303.2206
ENERGY: 600000 3.0767 2.4285 1.8804 0.0000 -10900.4126 1507.6976 0.0000 0.0000 1765.6453 -7619.6842 296.6160 -9385.3295 -7625.9148 296.9645 182.2879 299.9776 30525.5043 54.0561 133.2433
ENERGY: 900000 1.7732 2.5141 2.7363 0.0000 -10747.8479 1395.7874 0.0000 0.0000 1746.5454 -7598.4915 293.4073 -9345.0369 -7620.9744 296.4242 -452.3664 -395.1635 30688.3134 -115.0051 -47.7197
ENERGY: 1200000 2.1935 1.4220 2.0759 0.0000 -10897.7478 1462.7905 0.0000 0.0000 1813.4479 -7615.8179 304.6465 -9429.2659 -7615.7881 297.2884 35.5192 88.6742 30725.6405 -136.3519 -72.8306
ENERGY: 1500000 2.3995 1.3704 2.2634 0.0000 -10970.9138 1456.2726 0.0000 0.0000 1761.7291 -7746.8789 295.9581 -9508.6080 -7622.7958 297.2590 -331.5746 -316.0026 30796.6535 -187.1748 -128.1013
TCL: Running FEP window  10: Lambda1 0.5499999999999996 Lambda2 0.4999999999999996 [dLambda -0.04999999999999999]
TCL: Setting parameter firsttimestep to 0
TCL: Setting parameter alchLambda to 0.5499999999999996
Info: NONBONDED TABLE R-SQUARED SPACING: 0.0625
Info: NONBONDED TABLE SIZE: 705 POINTS
TCL: Setting parameter alchLambda2 to 0.4999999999999996
Info: NONBONDED TABLE R-SQUARED SPACING: 0.0625
Info: NONBONDED TABLE SIZE: 705 POINTS
TCL: Running for 1500000 steps
ETITLE: TS BOND ANGLE DIHED IMPRP ELECT VDW BOUNDARY MISC KINETIC TOTAL TEMP POTENTIAL TOTALAVG TEMPAVG PRESSURE GPRESSURE VOLUME PRESSAVG GPRESSAVG
ENERGY: 0 2.3995 1.3704 2.2634 0.0000 -10970.6132 1456.5938 0.0000 0.0000 1760.8274 -7747.1588 295.8066 -9507.9861 -7747.1588 295.8066 -392.8889 -322.7607 30796.6535 -392.8889 -322.7607
ENERGY: 300000 2.2977 3.3278 4.6019 0.0000 -10964.1398 1505.7095 0.0000 0.0000 1768.3056 -7679.8972 297.0629 -9448.2029 -7653.7832 299.2348 50.9786 67.1813 31030.3996 86.1950 118.1881
ENERGY: 600000 2.3296 2.3289 3.1125 0.0000 -10696.1410 1373.5308 0.0000 0.0000 1738.1441 -7576.6951 291.9960 -9314.8392 -7631.2400 298.7626 -804.2545 -702.2925 31203.6967 -85.1042 -38.2664
ENERGY: 900000 2.1721 3.7157 2.3299 0.0000 -10876.9928 1461.2465 0.0000 0.0000 1761.9201 -7645.6085 295.9902 -9407.5286 -7638.2262 297.0872 76.5417 118.7319 30638.1268 -28.5485 30.9489
ENERGY: 1200000 2.0056 1.5798 1.6130 0.0000 -10823.7349 1455.7345 0.0000 0.0000 1825.7458 -7537.0562 306.7124 -9362.8020 -7618.8995 298.6650 -164.0959 -116.8483 31078.8796 -48.0635 6.3480
ENERGY: 1500000 1.7586 4.5931 7.4466 0.0000 -10717.2731 1415.6749 0.0000 0.0000 1768.0381 -7519.7619 297.0179 -9287.8000 -7609.5987 298.4818 -484.0732 -365.4547 31357.3874 -37.7847 24.3528
TCL: Running FEP window  11: Lambda1 0.4999999999999996 Lambda2 0.4499999999999996 [dLambda -0.04999999999999999]
TCL: Setting parameter firsttimestep to 0
TCL: Setting parameter alchLambda to 0.4999999999999996
Info: NONBONDED TABLE R-SQUARED SPACING: 0.0625
Info: NONBONDED TABLE SIZE: 705 POINTS
TCL: Setting parameter alchLambda2 to 0.4499999999999996
Info: NONBONDED TABLE R-SQUARED SPACING: 0.0625
Info: NONBONDED TABLE SIZE: 705 POINTS
TCL: Running for 1500000 steps
ETITLE: TS BOND ANGLE DIHED IMPRP ELECT VDW BOUNDARY MISC KINETIC TOTAL TEMP POTENTIAL TOTALAVG TEMPAVG PRESSURE GPRESSURE VOLUME PRESSAVG GPRESSAVG
ENERGY: 0 1.7586 4.5931 7.4466 0.0000 -10717.2478 1416.1921 0.0000 0.0000 1767.1494 -7520.1080 296.8686 -9287.2574 -7520.1080 296.8686 -463.6150 -371.4010 31357.3874 -463.6150 -371.4010
ENERGY: 300000 4.7337 4.5470 3.8773 0.0000 -10748.7806 1384.6637 0.0000 0.0000 1746.1515 -7604.8072 293.3411 -9350.9587 -7610.6526 296.5792 -785.5883 -785.7602 31061.0412 43.0189 99.9239
ENERGY: 600000 1.5619 3.3544 1.7373 0.0000 -10899.0762 1499.1775 0.0000 0.0000 1817.5910 -7575.6540 305.3425 -9393.2450 -7602.8099 300.0031 23.4561 77.1823 30986.2057 72.3256 114.9318
ENERGY: 900000 1.7114 1.4108 5.5525 0.0000 -10852.9135 1436.2163 0.0000 0.0000 1726.0294 -7681.9930 289.9608 -9408.0224 -7611.8148 299.6502 -319.8578 -276.2957 31111.7607 30.6956 77.4320
ENERGY: 1200000 3.3180 1.1328 1.3372 0.0000 -10776.9838 1411.4467 0.0000 0.0000 1772.8725 -7586.8766 297.8301 -9359.7491 -7605.1408 299.8149 46.6138 102.8012 30264.6623 -75.5432 -26.8236
ENERGY: 1500000 4.1716 3.0023 2.5000 0.0000 -10901.4195 1445.5379 0.0000 0.0000 1806.8665 -7639.3412 303.5408 -9446.2077 -7601.4711 300.6937 46.9068 70.3928 30460.0792 -34.8005 13.3376
TCL: Running FEP window  12: Lambda1 0.4499999999999996 Lambda2 0.39999999999999963 [dLambda -0.04999999999999999]
TCL: Setting parameter firsttimestep to 0
TCL: Setting parameter alchLambda to 0.4499999999999996
Info: NONBONDED TABLE R-SQUARED SPACING: 0.0625
Info: NONBONDED TABLE SIZE: 705 POINTS
TCL: Setting parameter alchLambda2 to 0.39999999999999963
Info: NONBONDED TABLE R-SQUARED SPACING: 0.0625
Info: NONBONDED TABLE SIZE: 705 POINTS
TCL: Running for 1500000 steps
ETITLE: TS BOND ANGLE DIHED IMPRP ELECT VDW BOUNDARY MISC KINETIC TOTAL TEMP POTENTIAL TOTALAVG TEMPAVG PRESSURE GPRESSURE VOLUME PRESSAVG GPRESSAVG
ENERGY: 0 4.1716 3.0023 2.5000 0.0000 -10901.4195 1445.6652 0.0000 0.0000 1806.0026 -7640.0777 303.3957 -9446.0803 -7640.0777 303.3957 -14.2925 62.2129 30460.0792 -14.2925 62.2129
ENERGY: 300000 3.7844 2.6181 3.3595 0.0000 -11009.5546 1530.2533 0.0000 0.0000 1816.4060 -7653.1333 305.1434 -9469.5393 -7596.7686 301.8023 173.0199 274.4343 30560.3026 -315.2142 -240.0015
ENERGY: 600000 3.5843 1.5733 1.2117 0.0000 -10913.6153 1512.3452 0.0000 0.0000 1799.4853 -7595.4155 302.3009 -9394.9008 -7599.5395 302.2264 307.1464 362.0204 31106.7627 -138.4228 -65.3159
ENERGY: 900000 5.2036 2.3948 2.5320 0.0000 -10858.4994 1405.3198 0.0000 0.0000 1767.8245 -7675.2248 296.9821 -9443.0493 -7610.0204 300.5654 -563.8420 -456.6133 30645.9862 -183.5007 -96.2322
ENERGY: 1200000 1.7019 2.0756 1.0842 0.0000 -10818.7121 1469.6487 0.0000 0.0000 1784.0655 -7560.1362 299.7104 -9344.2017 -7595.4776 300.9952 199.4734 270.1252 30805.7927 -148.0016 -66.1060
ENERGY: 1500000 2.7533 4.9786 2.4307 0.0000 -10899.0976 1487.9195 0.0000 0.0000 1770.8056 -7630.2098 297.4829 -9401.0154 -7599.7855 301.5224 72.4085 136.0979 30788.7317 -70.9257 6.8797
TCL: Running FEP window  13: Lambda1 0.39999999999999963 Lambda2 0.34999999999999964 [dLambda -0.04999999999999999]
TCL: Setting parameter firsttimestep to 0
TCL: Setting parameter alchLambda to 0.39999999999999963
Info: NONBONDED TABLE R-SQUARED SPACING: 0.0625
Info: NONBONDED TABLE SIZE: 705 POINTS
TCL: Setting parameter alchLambda2 to 0.34999999999999964
Info: NONBONDED TABLE R-SQUARED SPACING: 0.0625
Info: NONBONDED TABLE SIZE: 705 POINTS
TCL: Running for 1500000 steps
ETITLE: TS BOND ANGLE DIHED IMPRP ELECT VDW BOUNDARY MISC KINETIC TOTAL TEMP POTENTIAL TOTALAVG TEMPAVG PRESSURE GPRESSURE VOLUME PRESSAVG GPRESSAVG
ENERGY: 0 2.7533 4.9786 2.4307 0.0000 -10899.0973 1487.6214 0.0000 0.0000 1769.9035 -7631.4097 297.3313 -9401.3132 -7631.4097 297.3313 51.5241 126.5904 30788.7317 51.5241 126.5904
ENERGY: 300000 3.0200 3.8349 2.7804 0.0000 -10748.4417 1395.5375 0.0000 0.0000 1768.1209 -7575.1480 297.0319 -9343.2689 -7596.8467 299.4697 -760.4642 -662.4985 31508.7627 -284.4920 -208.1095
ENERGY: 600000 1.8433 2.0331 1.4614 0.0000 -10907.1852 1479.2706 0.0000 0.0000 1765.7970 -7656.7798 296.6414 -9422.5768 -7612.5468 297.6408 -92.9042 -37.0257 31185.9206 -332.8498 -253.6184
ENERGY: 900000 1.5372 4.5877 2.6477 0.0000 -10778.1440 1431.0920 0.0000 0.0000 1784.6204 -7553.6590 299.8036 -9338.2794 -7613.1847 297.6595 25.3391 64.1117 30533.0849 -273.6919 -202.8102
ENERGY: 1200000 1.9719 1.3954 1.3531 0.0000 -10775.4885 1381.8092 0.0000 0.0000 1841.1978 -7547.7610 309.3083 -9388.9588 -7608.3265 298.3172 -406.1204 -437.3353 30860.5562 -299.4591 -237.7298
ENERGY: 1500000 2.2175 3.5777 1.2335 0.0000 -10617.3095 1302.6403 0.0000 0.0000 1747.0305 -7560.6101 293.4888 -9307.6406 -7602.7935 298.4896 -840.7050 -857.5807 30886.3066 -221.1019 -163.1008
TCL: Running FEP window  14: Lambda1 0.34999999999999964 Lambda2 0.29999999999999966 [dLambda -0.04999999999999999]
TCL: Setting parameter firsttimestep to 0
TCL: Setting parameter alchLambda to 0.34999999999999964
Info: NONBONDED TABLE R-SQUARED SPACING: 0.0625
Info: NONBONDED TABLE SIZE: 705 POINTS
TCL: Setting parameter alchLambda2 to 0.29999999999999966
Info: NONBONDED TABLE R-SQUARED SPACING: 0.0625
Info: NONBONDED TABLE SIZE: 705 POINTS
TCL: Running for 1500000 steps
ETITLE: TS BOND ANGLE DIHED IMPRP ELECT VDW BOUNDARY MISC KINETIC TOTAL TEMP POTENTIAL TOTALAVG TEMPAVG PRESSURE GPRESSURE VOLUME PRESSAVG GPRESSAVG
ENERGY: 0 2.2175 3.5777 1.2335 0.0000 -10617.3094 1302.7621 0.0000 0.0000 1746.1603 -7561.3583 293.3426 -9307.5186 -7561.3583 293.3426 -928.2920 -863.8957 30886.3066 -928.2920 -863.8957
ENERGY: 300000 1.7429 2.7928 2.8108 0.0000 -10927.3030 1519.1926 0.0000 0.0000 1788.2427 -7612.5212 300.4122 -9400.7639 -7563.7293 300.9524 700.0690 799.7384 30234.8851 -92.0392 -9.6184
ENERGY: 600000 4.0084 2.9440 3.1175 0.0000 -10927.8773 1507.6064 0.0000 0.0000 1807.5392 -7602.6618 303.6539 -9410.2010 -7566.5199 301.6724 17.3031 6.6943 31023.7833 -50.6865 9.4027
ENERGY: 900000 5.0749 1.2517 2.8450 0.0000 -10942.2079 1483.1863 0.0000 0.0000 1765.4899 -7684.3599 296.5899 -9449.8499 -7584.7315 300.9246 -105.5132 -79.3412 30560.0844 -10.3178 53.0609
ENERGY: 1200000 5.6099 3.3543 2.6807 0.0000 -10681.0092 1329.9709 0.0000 0.0000 1737.5199 -7601.8735 291.8911 -9339.3934 -7584.1400 300.6284 -1282.2286 -1191.9463 31265.8292 -86.4490 -20.2379
ENERGY: 1500000 3.2245 2.9530 5.2990 0.0000 -10902.8280 1517.7240 0.0000 0.0000 1803.2088 -7570.4188 302.9264 -9373.6276 -7596.3936 299.5110 376.2094 456.7952 30701.1563 -32.2702 32.3788
TCL: Running FEP window  15: Lambda1 0.29999999999999966 Lambda2 0.24999999999999967 [dLambda -0.04999999999999999]
TCL: Setting parameter firsttimestep to 0
TCL: Setting parameter alchLambda to 0.29999999999999966
Info: NONBONDED TABLE R-SQUARED SPACING: 0.0625
Info: NONBONDED TABLE SIZE: 705 POINTS
TCL: Setting parameter alchLambda2 to 0.24999999999999967
Info: NONBONDED TABLE R-SQUARED SPACING: 0.0625
Info: NONBONDED TABLE SIZE: 705 POINTS
TCL: Running for 1500000 steps
ETITLE: TS BOND ANGLE DIHED IMPRP ELECT VDW BOUNDARY MISC KINETIC TOTAL TEMP POTENTIAL TOTALAVG TEMPAVG PRESSURE GPRESSURE VOLUME PRESSAVG GPRESSAVG
ENERGY: 0 3.2245 2.9530 5.2990 0.0000 -10902.8256 1518.3026 0.0000 0.0000 1802.3262 -7570.7204 302.7781 -9373.0466 -7570.7204 302.7781 375.3975 458.2820 30701.1563 375.3975 458.2820
ENERGY: 300000 2.6744 1.7474 3.9704 0.0000 -10926.8479 1517.3210 0.0000 0.0000 1772.9712 -7628.1635 297.8467 -9401.1347 -7605.6001 299.6984 418.6521 481.5104 30531.7604 80.2765 138.3284
ENERGY: 600000 5.3163 2.4847 1.6512 0.0000 -11044.7650 1530.6700 0.0000 0.0000 1764.4721 -7740.1708 296.4189 -9504.6429 -7620.1777 298.5514 360.8028 492.1544 30120.3131 19.9740 81.3847
ENERGY: 900000 1.8760 5.9001 1.9121 0.0000 -10845.1806 1460.9174 0.0000 0.0000 1824.4544 -7550.1206 306.4955 -9374.5750 -7609.3659 300.0150 -66.7529 -51.8393 30966.0562 70.8464 124.2118
ENERGY: 1200000 3.1513 2.1055 1.6532 0.0000 -10864.7073 1492.6925 0.0000 0.0000 1759.7773 -7605.3276 295.6302 -9365.1048 -7613.4623 300.0852 -9.0746 39.9150 31103.6403 38.7184 96.1688
ENERGY: 1500000 3.4292 3.7883 4.2962 0.0000 -10888.5611 1457.7364 0.0000 0.0000 1752.2219 -7667.0890 294.3609 -9419.3110 -7617.7384 299.6461 -147.5704 -7.6518 30435.2636 71.3443 131.7600
TCL: Running FEP window  16: Lambda1 0.24999999999999967 Lambda2 0.19999999999999968 [dLambda -0.04999999999999999]
TCL: Setting parameter firsttimestep to 0
TCL: Setting parameter alchLambda to 0.24999999999999967
Info: NONBONDED TABLE R-SQUARED SPACING: 0.0625
Info: NONBONDED TABLE SIZE: 705 POINTS
TCL: Setting parameter alchLambda2 to 0.19999999999999968
Info: NONBONDED TABLE R-SQUARED SPACING: 0.0625
Info: NONBONDED TABLE SIZE: 705 POINTS
TCL: Running for 1500000 steps
ETITLE: TS BOND ANGLE DIHED IMPRP ELECT VDW BOUNDARY MISC KINETIC TOTAL TEMP POTENTIAL TOTALAVG TEMPAVG PRESSURE GPRESSURE VOLUME PRESSAVG GPRESSAVG
ENERGY: 0 3.4292 3.7883 4.2962 0.0000 -10888.5619 1458.1012 0.0000 0.0000 1751.3365 -7667.6105 294.2122 -9418.9470 -7667.6105 294.2122 -109.5453 -10.8028 30435.2636 -109.5453 -10.8028
ENERGY: 300000 6.3508 3.6572 2.1652 0.0000 -10810.9472 1441.4898 0.0000 0.0000 1741.6188 -7615.6654 292.5797 -9357.2842 -7636.7330 297.3151 -51.5848 68.6548 30318.3457 42.9389 116.9936
ENERGY: 600000 1.1124 3.6168 1.6680 0.0000 -10920.6451 1454.2117 0.0000 0.0000 1771.0850 -7688.9512 297.5298 -9460.0362 -7626.9972 299.0865 -452.4253 -396.9020 30865.5984 -15.3078 61.5441
ENERGY: 900000 3.2877 0.7836 1.0738 0.0000 -10869.8975 1472.0003 0.0000 0.0000 1762.6218 -7630.1302 296.1080 -9392.7520 -7637.5554 297.5153 -16.1594 64.6817 30716.4917 8.4364 76.4270
ENERGY: 1200000 3.5876 3.7643 2.4694 0.0000 -10790.1678 1399.2220 0.0000 0.0000 1796.1073 -7585.0171 301.7334 -9381.1245 -7623.7487 298.3642 -644.4474 -536.7381 30949.8792 -51.9543 14.9487
ENERGY: 1500000 1.7597 2.8733 2.6989 0.0000 -10826.6934 1416.4319 0.0000 0.0000 1806.4807 -7596.4488 303.4760 -9402.9295 -7617.1351 298.9755 -392.5310 -335.9453 30736.7365 -23.6089 35.1252
TCL: Running FEP window  17: Lambda1 0.19999999999999968 Lambda2 0.1499999999999997 [dLambda -0.04999999999999999]
TCL: Setting parameter firsttimestep to 0
TCL: Setting parameter alchLambda to 0.19999999999999968
Info: NONBONDED TABLE R-SQUARED SPACING: 0.0625
Info: NONBONDED TABLE SIZE: 705 POINTS
TCL: Setting parameter alchLambda2 to 0.1499999999999997
Info: NONBONDED TABLE R-SQUARED SPACING: 0.0625
Info: NONBONDED TABLE SIZE: 705 POINTS
TCL: Running for 1500000 steps
ETITLE: TS BOND ANGLE DIHED IMPRP ELECT VDW BOUNDARY MISC KINETIC TOTAL TEMP POTENTIAL TOTALAVG TEMPAVG PRESSURE GPRESSURE VOLUME PRESSAVG GPRESSAVG
ENERGY: 0 1.7597 2.8733 2.6989 0.0000 -10826.6935 1416.8715 0.0000 0.0000 1805.6119 -7596.8781 303.3301 -9402.4900 -7596.8781 303.3301 -411.0592 -336.5792 30736.7365 -411.0592 -336.5792
ENERGY: 300000 1.8791 2.6611 1.9724 0.0000 -10939.5046 1530.5101 0.0000 0.0000 1800.9225 -7601.5594 302.5423 -9402.4819 -7608.3759 301.0625 518.6603 545.3117 30669.8404 46.3003 99.4324
ENERGY: 600000 3.2431 1.7450 2.9864 0.0000 -10799.2617 1411.7201 0.0000 0.0000 1755.4396 -7624.1274 294.9015 -9379.5670 -7603.7490 300.0417 -605.8409 -543.7858 31096.3044 6.5674 59.3463
ENERGY: 900000 1.6971 0.8397 3.0997 0.0000 -10796.8065 1440.6135 0.0000 0.0000 1812.9019 -7537.6546 304.5547 -9350.5565 -7592.5326 301.8857 -120.1379 -75.9756 30927.1104 -51.9780 5.8802
ENERGY: 1200000 0.9434 4.1763 2.4766 0.0000 -11104.6264 1698.1777 0.0000 0.0000 1781.8055 -7617.0471 299.3308 -9398.8525 -7611.6046 300.9488 1968.6256 1988.8217 30309.4349 92.7494 151.8109
ENERGY: 1500000 3.7035 1.7463 3.0952 0.0000 -10930.3270 1579.1201 0.0000 0.0000 1806.5718 -7536.0901 303.4913 -9342.6620 -7602.0711 301.0128 814.5669 887.0564 30868.7376 177.9883 238.5150
TCL: Running FEP window  18: Lambda1 0.1499999999999997 Lambda2 0.09999999999999969 [dLambda -0.05 ]
TCL: Setting parameter firsttimestep to 0
TCL: Setting parameter alchLambda to 0.1499999999999997
Info: NONBONDED TABLE R-SQUARED SPACING: 0.0625
Info: NONBONDED TABLE SIZE: 705 POINTS
TCL: Setting parameter alchLambda2 to 0.09999999999999969
Info: NONBONDED TABLE R-SQUARED SPACING: 0.0625
Info: NONBONDED TABLE SIZE: 705 POINTS
TCL: Running for 1500000 steps
ETITLE: TS BOND ANGLE DIHED IMPRP ELECT VDW BOUNDARY MISC KINETIC TOTAL TEMP POTENTIAL TOTALAVG TEMPAVG PRESSURE GPRESSURE VOLUME PRESSAVG GPRESSAVG
ENERGY: 0 3.7035 1.7463 3.0952 0.0000 -10930.3267 1579.2404 0.0000 0.0000 1805.6931 -7536.8482 303.3437 -9342.5413 -7536.8482 303.3437 794.7728 884.1987 30868.7376 794.7728 884.1987
ENERGY: 300000 2.3837 3.5182 3.4674 0.0000 -10956.6506 1543.6122 0.0000 0.0000 1826.1202 -7577.5488 306.7753 -9403.6691 -7557.5199 302.4475 686.6116 714.4238 30624.1702 595.1416 668.3556
ENERGY: 600000 3.1054 2.1622 5.4688 0.0000 -10916.3805 1490.3627 0.0000 0.0000 1856.9739 -7558.3074 311.9585 -9415.2814 -7573.4397 301.6757 11.6824 85.2484 30837.9625 108.6105 172.9097
ENERGY: 900000 2.7595 1.1999 1.4872 0.0000 -10942.8206 1466.1613 0.0000 0.0000 1788.2741 -7682.9386 300.4175 -9471.2127 -7592.3447 301.7340 -385.3655 -288.7981 30874.3499 -22.0044 44.2839
ENERGY: 1200000 3.1245 1.4906 2.2672 0.0000 -10875.2286 1439.1388 0.0000 0.0000 1770.6158 -7658.5916 297.4510 -9429.2075 -7592.9114 301.9180 -336.4562 -235.4403 30798.3907 -78.3274 -11.1089
ENERGY: 1500000 3.8779 1.3876 2.0434 0.0000 -10976.6545 1513.0611 0.0000 0.0000 1800.1008 -7656.1837 302.4043 -9456.2846 -7589.0822 302.4185 273.0634 308.9349 30488.0485 -62.2948 4.3787
TCL: Running FEP window  19: Lambda1 0.09999999999999969 Lambda2 0.049999999999999684 [dLambda -0.05 ]
TCL: Setting parameter firsttimestep to 0
TCL: Setting parameter alchLambda to 0.09999999999999969
Info: NONBONDED TABLE R-SQUARED SPACING: 0.0625
Info: NONBONDED TABLE SIZE: 705 POINTS
TCL: Setting parameter alchLambda2 to 0.049999999999999684
Info: NONBONDED TABLE R-SQUARED SPACING: 0.0625
Info: NONBONDED TABLE SIZE: 705 POINTS
TCL: Running for 1500000 steps
ETITLE: TS BOND ANGLE DIHED IMPRP ELECT VDW BOUNDARY MISC KINETIC TOTAL TEMP POTENTIAL TOTALAVG TEMPAVG PRESSURE GPRESSURE VOLUME PRESSAVG GPRESSAVG
ENERGY: 0 3.8779 1.3876 2.0434 0.0000 -10976.6545 1513.0283 0.0000 0.0000 1799.2322 -7657.0851 302.2583 -9456.3173 -7657.0851 302.2583 232.8268 305.0253 30488.0485 232.8268 305.0253
ENERGY: 300000 2.3135 1.6142 3.1361 0.0000 -10752.0960 1383.2717 0.0000 0.0000 1750.1710 -7611.5896 294.0164 -9361.7606 -7602.9264 300.1057 -475.9501 -438.7154 30622.6339 114.8812 189.6090
ENERGY: 600000 2.6883 3.1885 1.0233 0.0000 -10809.1104 1445.6403 0.0000 0.0000 1823.9487 -7532.6213 306.4105 -9356.5700 -7588.8463 303.5862 -352.6445 -259.6965 31353.8100 -15.9363 57.8747
ENERGY: 900000 3.7102 3.0894 2.1068 0.0000 -10920.9719 1517.8958 0.0000 0.0000 1766.5228 -7627.6470 296.7634 -9394.1698 -7604.6733 302.2054 750.5720 773.6039 30209.7700 -63.8872 1.5037
ENERGY: 1200000 1.9016 4.3438 1.3623 0.0000 -10946.6887 1459.7290 0.0000 0.0000 1731.1198 -7748.2323 290.8159 -9479.3521 -7611.5730 301.9112 -285.0772 -214.7175 30786.5466 -94.2337 -35.5772
ENERGY: 1500000 1.2646 4.5761 3.0021 0.0000 -10755.8630 1413.7261 0.0000 0.0000 1787.4526 -7545.8416 300.2794 -9333.2941 -7607.6604 301.1758 -395.4123 -298.6632 31160.4530 -96.0610 -36.0982
TCL: Running FEP window  20: Lambda1 0.049999999999999684 Lambda2 0.0    [dLambda -0.049999999999999684]
TCL: Setting parameter firsttimestep to 0
TCL: Setting parameter alchLambda to 0.049999999999999684
Info: NONBONDED TABLE R-SQUARED SPACING: 0.0625
Info: NONBONDED TABLE SIZE: 705 POINTS
TCL: Setting parameter alchLambda2 to 0.0
Info: NONBONDED TABLE R-SQUARED SPACING: 0.0625
Info: NONBONDED TABLE SIZE: 705 POINTS
TCL: Running for 1500000 steps
ETITLE: TS BOND ANGLE DIHED IMPRP ELECT VDW BOUNDARY MISC KINETIC TOTAL TEMP POTENTIAL TOTALAVG TEMPAVG PRESSURE GPRESSURE VOLUME PRESSAVG GPRESSAVG
ENERGY: 0 1.2646 4.5761 3.0021 0.0000 -10755.8625 1413.0669 0.0000 0.0000 1786.5873 -7547.3655 300.1341 -9333.9529 -7547.3655 300.1341 -386.9529 -303.1436 31160.4530 -386.9529 -303.1436
ENERGY: 300000 3.3793 4.5929 5.6304 0.0000 -10877.0684 1520.9039 0.0000 0.0000 1758.7997 -7583.7622 295.4660 -9342.5619 -7633.1114 298.0178 602.6299 625.2961 30785.7838 8.4876 51.5926
ENERGY: 600000 2.9296 2.8802 2.4871 0.0000 -10896.4781 1495.0881 0.0000 0.0000 1792.0728 -7601.0203 301.0556 -9393.0931 -7636.4298 298.2842 513.9256 564.6894 30383.0330 83.3990 130.8531
ENERGY: 900000 1.9300 2.8007 0.8833 0.0000 -10890.6208 1490.7802 0.0000 0.0000 1772.1735 -7622.0531 297.7127 -9394.2267 -7645.3481 299.1301 -167.9211 -108.6061 31188.4994 -3.4717 38.3598
ENERGY: 1200000 2.0316 1.9620 3.1857 0.0000 -10926.1930 1513.6105 0.0000 0.0000 1740.2169 -7665.1864 292.3442 -9405.4034 -7638.9414 298.7106 333.5746 412.2744 30411.3111 -40.0122 9.6182
ENERGY: 1500000 3.6278 2.0911 4.8848 0.0000 -10812.5189 1422.3832 0.0000 0.0000 1757.7201 -7621.8120 295.2846 -9379.5320 -7630.8316 298.2683 -401.9473 -358.4327 30865.0548 -92.8949 -45.5435
TCL: Exiting due to exit command.
