Info: SIMULATION PARAMETERS:
Info: TIMESTEP               2
Info: NUMBER OF STEPS        0
Info: STEPS PER CYCLE        10
Info: PERIODIC CELL BASIS 1  42.113 0 0
Info: PERIODIC CELL BASIS 2  0 41.432 0
Info: PERIODIC CELL BASIS 3  0 0 44.657
Info: PERIODIC CELL CENTER   0 0 0
Info: WRAPPING WATERS AROUND PERIODIC BOUNDARIES ON OUTPUT.
Info: WRAPPING ALL CLUSTERS AROUND PERIODIC BOUNDARIES ON OUTPUT.
Info: FIRST LDB TIMESTEP     50
Info: LAST LDB TIMESTEP     -1
Info: HOM BACKGROUND SCALING 1
Info: PME BACKGROUND SCALING 1
Info: MIN ATOMS PER PATCH    40
Info: EMPTY PATCH LOAD       40 ATOMS
Info: INITIAL TEMPERATURE    300
Info: CENTER OF MASS MOVING INITIALLY? NO
Info: DIELECTRIC             1
Info: EXCLUDE                SCALED ONE-FOUR
Info: 1-4 ELECTROSTATICS SCALED BY 0.833333
Info: MODIFIED 1-4 VDW PARAMETERS WILL BE USED
Info: DCD FILENAME           mobley_5076071_min.dcd
Info: DCD FREQUENCY          5000
Info: DCD FIRST STEP         5000
Info: DCD FILE WILL CONTAIN UNIT CELL DATA
Info: XST FILENAME           mobley_5076071_min.xst
Info: XST FREQUENCY          5000
Info: NO VELOCITY DCD OUTPUT
Info: NO FORCE DCD OUTPUT
Info: OUTPUT FILENAME        mobley_5076071_min
Info: BINARY OUTPUT FILES WILL BE USED
Info: RESTART FILENAME       mobley_5076071_min.restart
Info: RESTART FREQUENCY      5000
Info: BINARY RESTART FILES WILL BE USED
Info: CUTOFF                 9
Info: PAIRLIST DISTANCE      11
Info: PAIRLIST SHRINK RATE   0.01
Info: PAIRLIST GROW RATE     0.01
Info: PAIRLIST TRIGGER       0.3
Info: PAIRLISTS PER CYCLE    2
Info: PAIRLISTS ENABLED
Info: MARGIN                 8
Info: HYDROGEN GROUP CUTOFF  2.5
Info: PATCH DIMENSION        21.5
Info: ENERGY OUTPUT STEPS    5000
Info: ENERGY EVALUATION STEPS    5000
Info: OUTPUT ENERGY PRECISION 4
Info: CROSSTERM ENERGY INCLUDED IN DIHEDRAL
Info: TIMING OUTPUT STEPS    50000
Info: PRESSURE OUTPUT STEPS  5000
Info: LANGEVIN DYNAMICS ACTIVE
Info: LANGEVIN TEMPERATURE   300
Info: LANGEVIN USING BBK INTEGRATOR
Info: LANGEVIN DAMPING COEFFICIENT IS 1 INVERSE PS
Info: LANGEVIN DYNAMICS APPLIED TO HYDROGENS
Info: LANGEVIN PISTON PRESSURE CONTROL ACTIVE
Info:        TARGET PRESSURE IS 1.01325 BAR
Info:     OSCILLATION PERIOD IS 50 FS
Info:             DECAY TIME IS 25 FS
Info:     PISTON TEMPERATURE IS 300 K
Info:       PRESSURE CONTROL IS GROUP-BASED
Info:    INITIAL STRAIN RATE IS 0 0 0
Info:       CELL FLUCTUATION IS ISOTROPIC
Info: PARTICLE MESH EWALD (PME) ACTIVE
Info: PME TOLERANCE               1e-06
Info: PME EWALD COEFFICIENT       0.348832
Info: PME INTERPOLATION ORDER     4
Info: PME GRID DIMENSIONS         44 44 48
Info: PME MAXIMUM GRID SPACING    1
Info: FULL ELECTROSTATIC EVALUATION FREQUENCY      2
Info: USING VERLET I (r-RESPA) MTS SCHEME.
Info: C1 SPLITTING OF LONG RANGE ELECTROSTATICS
Info: PLACING ATOMS IN PATCHES BY HYDROGEN GROUPS
Info: RIGID BONDS TO HYDROGEN : ALL
Info:         ERROR TOLERANCE : 1e-08
Info:          MAX ITERATIONS : 100
Info: RIGID WATER USING SETTLE ALGORITHM
Info: RANDOM NUMBER SEED     1741347053
Info: USE HYDROGEN BONDS?    NO
Info: Using AMBER format force field!
Info: AMBER PARM FILE        mobley_5076071.prmtop
Info: COORDINATE PDB         mobley_5076071.pdb
Info: Exclusions will be read from PARM file!
Info: SCNB (VDW SCALING)     2
Info: USING ARITHMETIC MEAN TO COMBINE L-J SIGMA PARAMETERS
Info: SUMMARY OF PARAMETERS:
Info: 14 BONDS
Info: 19 ANGLES
Info:   19 HARMONIC
Info:   0 COSINE-BASED
Info: 8 DIHEDRAL
Info: 0 IMPROPER
Info: 0 CROSSTERM
Info: 0 VDW
Info: 78 VDW_PAIRS
Info: 0 NBTHOLE_PAIRS
Info: STRUCTURE SUMMARY:
Info: 5696 ATOMS
Info: 5696 BONDS
Info: 60 ANGLES
Info: 78 DIHEDRALS
Info: 0 IMPROPERS
Info: 0 CROSSTERMS
Info: 5829 EXCLUSIONS
Info: 5674 RIGID BONDS
Info: 11414 DEGREES OF FREEDOM
Info: 1909 HYDROGEN GROUPS
Info: 4 ATOMS IN LARGEST HYDROGEN GROUP
Info: 1909 MIGRATION GROUPS
Info: 4 ATOMS IN LARGEST MIGRATION GROUP
Info: TOTAL MASS = 34318.4 amu
Info: TOTAL CHARGE = -0.000300046 e
Info: MASS DENSITY = 0.731384 g/cm^3
Info: ATOM DENSITY = 0.0731018 atoms/A^3
Info: ADDED 0 IMPLICIT EXCLUSIONS
Info: NONBONDED TABLE R-SQUARED SPACING: 0.0625
Info: NONBONDED TABLE SIZE: 705 POINTS
Info: REMOVING COM VELOCITY -0.020191 -0.0327944 0.156961
TCL: Minimizing for 2000 steps
ETITLE: TS BOND ANGLE DIHED IMPRP ELECT VDW BOUNDARY MISC KINETIC TOTAL TEMP POTENTIAL TOTAL3 TEMPAVG PRESSURE GPRESSURE VOLUME PRESSAVG GPRESSAVG
ENERGY: 0 3.0980 3.3540 19.2122 0.0000 -17853.5518 1957.4898 0.0000 0.0000 0.0000 -15870.3978 0.0000 -15870.3978 -15870.3978 0.0000 11146.0741 -15838.5270 77918.6865 11146.0741 -15838.5270
ENERGY: 400 3.4285 3.7947 17.9241 0.0000 -23916.7177 3430.7399 0.0000 0.0000 0.0000 -20460.8305 0.0000 -20460.8305 -20460.8305 0.0000 15821.3178 9912.2908 77918.6865 15821.3178 9912.2908
ENERGY: 800 26.1854 11.2615 18.0522 0.0000 -25311.6709 4102.2297 0.0000 0.0000 0.0000 -21153.9420 0.0000 -21153.9420 -21153.9420 0.0000 18469.1396 12273.8337 77918.6865 18469.1396 12273.8337
ENERGY: 1200 2.4359 1.9676 17.4093 0.0000 -25783.7710 4279.8261 0.0000 0.0000 0.0000 -21482.1320 0.0000 -21482.1320 -21482.1320 0.0000 19295.8327 12877.9080 77918.6865 19295.8327 12877.9080
ENERGY: 1600 0.6823 1.7855 17.3219 0.0000 -26044.3392 4393.1016 0.0000 0.0000 0.0000 -21631.4480 0.0000 -21631.4480 -21631.4480 0.0000 19819.1336 13326.5944 77918.6865 19819.1336 13326.5944
ENERGY: 2000 0.5079 1.8080 17.6924 0.0000 -26199.8681 4475.2163 0.0000 0.0000 0.0000 -21704.6436 0.0000 -21704.6436 -21704.6436 0.0000 20184.0009 13825.1170 77918.6865 20184.0009 13825.1170
TCL: Exiting due to exit command.
Info: NAMD 3.0.1 for Linux-x86_64-multicore
Info: Please visit http://www.ks.uiuc.edu/Research/namd/
Info: for updates, documentation, and support information.
Info: Please cite Phillips et al., J. Chem. Phys. 153:044130 (2020) doi:10.1063/5.0014475
Info: in all publications reporting results obtained with NAMD.
Info: Based on Charm++/Converse 80000 for multicore-linux-x86_64-gcc
Info: Built Mon Oct 14 11:11:06 CDT 2024 by dhardy on athine.ks.uiuc.edu
Info: 1 NAMD  3.0.1  Linux-x86_64-multicore  16    k065  z5358697
Info: Running on 16 processors, 1 nodes, 1 physical nodes.
Info: CPU topology information available.
Info: Charm++/Converse parallel runtime startup completed at 0.00985937 s
Info: 1043.46 MB of memory in use based on /proc/self/stat
Info: Configuration file is mobley_5076071_equil.namd
Info: Working in the current directory /srv/scratch/z5358697/prod_prep_6/5076071
TCL: Running 25000 steps at 30 kelvin.
TCL: Suspending until startup complete.
Info: SIMULATION PARAMETERS:
Info: TIMESTEP               2
Info: NUMBER OF STEPS        0
Info: STEPS PER CYCLE        10
Info: PERIODIC CELL BASIS 1  42.113 0 0
Info: PERIODIC CELL BASIS 2  0 41.432 0
Info: PERIODIC CELL BASIS 3  0 0 44.657
Info: PERIODIC CELL CENTER   0 0 0
Info: WRAPPING WATERS AROUND PERIODIC BOUNDARIES ON OUTPUT.
Info: WRAPPING ALL CLUSTERS AROUND PERIODIC BOUNDARIES ON OUTPUT.
Info: FIRST LDB TIMESTEP     50
Info: LAST LDB TIMESTEP     -1
Info: HOM BACKGROUND SCALING 1
Info: PME BACKGROUND SCALING 1
Info: MIN ATOMS PER PATCH    40
Info: EMPTY PATCH LOAD       40 ATOMS
Info: INITIAL TEMPERATURE    300
Info: CENTER OF MASS MOVING INITIALLY? NO
Info: DIELECTRIC             1
Info: EXCLUDE                SCALED ONE-FOUR
Info: 1-4 ELECTROSTATICS SCALED BY 0.833333
Info: MODIFIED 1-4 VDW PARAMETERS WILL BE USED
Info: DCD FILENAME           mobley_5076071_equil.dcd
Info: DCD FREQUENCY          5000
Info: DCD FIRST STEP         5000
Info: DCD FILE WILL CONTAIN UNIT CELL DATA
Info: XST FILENAME           mobley_5076071_equil.xst
Info: XST FREQUENCY          5000
Info: NO VELOCITY DCD OUTPUT
Info: NO FORCE DCD OUTPUT
Info: OUTPUT FILENAME        mobley_5076071_equil
Info: BINARY OUTPUT FILES WILL BE USED
Info: RESTART FILENAME       mobley_5076071_equil.restart
Info: RESTART FREQUENCY      5000
Info: BINARY RESTART FILES WILL BE USED
Info: CUTOFF                 9
Info: PAIRLIST DISTANCE      11
Info: PAIRLIST SHRINK RATE   0.01
Info: PAIRLIST GROW RATE     0.01
Info: PAIRLIST TRIGGER       0.3
Info: PAIRLISTS PER CYCLE    2
Info: PAIRLISTS ENABLED
Info: MARGIN                 8
Info: HYDROGEN GROUP CUTOFF  2.5
Info: PATCH DIMENSION        21.5
Info: ENERGY OUTPUT STEPS    5000
Info: ENERGY EVALUATION STEPS    5000
Info: OUTPUT ENERGY PRECISION 4
Info: CROSSTERM ENERGY INCLUDED IN DIHEDRAL
Info: TIMING OUTPUT STEPS    50000
Info: PRESSURE OUTPUT STEPS  5000
Info: LANGEVIN DYNAMICS ACTIVE
Info: LANGEVIN TEMPERATURE   30
Info: LANGEVIN USING BBK INTEGRATOR
Info: LANGEVIN DAMPING COEFFICIENT IS 1 INVERSE PS
Info: LANGEVIN DYNAMICS APPLIED TO HYDROGENS
Info: LANGEVIN PISTON PRESSURE CONTROL ACTIVE
Info:        TARGET PRESSURE IS 1.01325 BAR
Info:     OSCILLATION PERIOD IS 50 FS
Info:             DECAY TIME IS 25 FS
Info:     PISTON TEMPERATURE IS 300 K
Info:       PRESSURE CONTROL IS GROUP-BASED
Info:    INITIAL STRAIN RATE IS 0 0 0
Info:       CELL FLUCTUATION IS ISOTROPIC
Info: PARTICLE MESH EWALD (PME) ACTIVE
Info: PME TOLERANCE               1e-06
Info: PME EWALD COEFFICIENT       0.348832
Info: PME INTERPOLATION ORDER     4
Info: PME GRID DIMENSIONS         44 44 48
Info: PME MAXIMUM GRID SPACING    1
Info: FULL ELECTROSTATIC EVALUATION FREQUENCY      2
Info: USING VERLET I (r-RESPA) MTS SCHEME.
Info: C1 SPLITTING OF LONG RANGE ELECTROSTATICS
Info: PLACING ATOMS IN PATCHES BY HYDROGEN GROUPS
Info: RIGID BONDS TO HYDROGEN : ALL
Info:         ERROR TOLERANCE : 1e-08
Info:          MAX ITERATIONS : 100
Info: RIGID WATER USING SETTLE ALGORITHM
Info: RANDOM NUMBER SEED     1741347075
Info: USE HYDROGEN BONDS?    NO
Info: Using AMBER format force field!
Info: AMBER PARM FILE        mobley_5076071.prmtop
Info: COORDINATE PDB         mobley_5076071.pdb
Info: Exclusions will be read from PARM file!
Info: SCNB (VDW SCALING)     2
Info: USING ARITHMETIC MEAN TO COMBINE L-J SIGMA PARAMETERS
Info: BINARY COORDINATES     mobley_5076071_min.coor
Info: SUMMARY OF PARAMETERS:
Info: 14 BONDS
Info: 19 ANGLES
Info:   19 HARMONIC
Info:   0 COSINE-BASED
Info: 8 DIHEDRAL
Info: 0 IMPROPER
Info: 0 CROSSTERM
Info: 0 VDW
Info: 78 VDW_PAIRS
Info: 0 NBTHOLE_PAIRS
Info: STRUCTURE SUMMARY:
Info: 5696 ATOMS
Info: 5696 BONDS
Info: 60 ANGLES
Info: 78 DIHEDRALS
Info: 0 IMPROPERS
Info: 0 CROSSTERMS
Info: 5829 EXCLUSIONS
Info: 5674 RIGID BONDS
Info: 11414 DEGREES OF FREEDOM
Info: 1909 HYDROGEN GROUPS
Info: 4 ATOMS IN LARGEST HYDROGEN GROUP
Info: 1909 MIGRATION GROUPS
Info: 4 ATOMS IN LARGEST MIGRATION GROUP
Info: TOTAL MASS = 34318.4 amu
Info: TOTAL CHARGE = -0.000300046 e
Info: MASS DENSITY = 0.731384 g/cm^3
Info: ATOM DENSITY = 0.0731018 atoms/A^3
Info: ADDED 0 IMPLICIT EXCLUSIONS
Info: NONBONDED TABLE R-SQUARED SPACING: 0.0625
Info: NONBONDED TABLE SIZE: 705 POINTS
Info: REMOVING COM VELOCITY 0.0725587 -0.172971 0.00790667
TCL: Running for 25000 steps
ETITLE: TS BOND ANGLE DIHED IMPRP ELECT VDW BOUNDARY MISC KINETIC TOTAL TEMP POTENTIAL TOTAL3 TEMPAVG PRESSURE GPRESSURE VOLUME PRESSAVG GPRESSAVG
ENERGY: 0 0.5079 1.8080 17.6924 0.0000 -26199.8681 4475.2163 0.0000 0.0000 3398.0208 -18306.6228 299.6253 -21704.6436 -18305.9725 299.6253 214.2153 257.3204 77918.6865 214.2153 257.3204
ENERGY: 5000 0.9202 2.9369 18.8986 0.0000 -27231.7833 4585.7254 0.0000 0.0000 341.4265 -22281.8756 30.1058 -22623.3021 -22280.9261 47.4240 -522.9077 -481.2502 55911.9957 0.7280 0.6959
ENERGY: 10000 1.4051 3.2776 18.6319 0.0000 -27503.4417 4801.9632 0.0000 0.0000 339.7769 -22338.3870 29.9603 -22678.1639 -22337.3848 30.2451 374.8094 436.0593 55227.0977 6.0675 5.9901
ENERGY: 15000 0.6915 3.2725 18.2719 0.0000 -27419.0037 4703.4032 0.0000 0.0000 343.9009 -22349.4638 30.3240 -22693.3647 -22348.5992 29.8219 -16.6567 35.9897 55414.0725 3.8337 3.6625
ENERGY: 20000 1.0620 3.4266 18.6036 0.0000 -27521.1549 4790.3629 0.0000 0.0000 344.3052 -22363.3946 30.3596 -22707.6998 -22362.2408 30.1424 340.4148 402.3015 55039.2563 4.7688 4.7646
ENERGY: 25000 0.9800 3.3974 18.7218 0.0000 -27436.5631 4702.1326 0.0000 0.0000 345.3456 -22365.9858 30.4513 -22711.3314 -22365.5698 30.1703 -82.0990 -18.5925 55208.7962 3.3867 3.3904
TCL: Running 25000 steps at 60 kelvin.
TCL: Setting parameter langevinTemp to 60
TCL: Running for 25000 steps
ETITLE: TS BOND ANGLE DIHED IMPRP ELECT VDW BOUNDARY MISC KINETIC TOTAL TEMP POTENTIAL TOTAL3 TEMPAVG PRESSURE GPRESSURE VOLUME PRESSAVG GPRESSAVG
ENERGY: 25000 0.9800 3.3974 18.7218 0.0000 -27436.5631 4702.1326 0.0000 0.0000 345.1813 -22366.1501 30.4369 -22711.3314 -22365.3659 30.4369 -76.8897 -18.6861 55208.7962 -76.8897 -18.6861
ENERGY: 30000 0.9208 5.3380 19.3712 0.0000 -26940.7867 4512.9904 0.0000 0.0000 677.8017 -21724.3645 59.7661 -22402.1662 -21722.9447 57.1841 -286.9441 -232.7499 55722.8800 1.4069 1.2059
ENERGY: 35000 2.0323 3.5505 17.9296 0.0000 -27088.7265 4642.2239 0.0000 0.0000 684.3578 -21738.6325 60.3442 -22422.9903 -21737.4107 59.9752 195.5566 253.0628 55439.7081 4.6835 4.8327
ENERGY: 40000 2.5131 4.7621 20.1829 0.0000 -26941.6028 4434.2601 0.0000 0.0000 674.4038 -21805.4807 59.4665 -22479.8845 -21803.8990 60.3065 -787.6547 -748.3361 55318.1803 1.6920 1.7151
ENERGY: 45000 2.7325 3.8175 19.5383 0.0000 -27157.6199 4633.7109 0.0000 0.0000 666.3218 -21831.4990 58.7539 -22497.8207 -21829.7624 60.1776 94.1221 159.5323 55138.3725 -1.6194 -1.6529
ENERGY: 50000 1.8634 4.6462 20.4760 0.0000 -27194.4650 4631.8558 0.0000 0.0000 685.0164 -21850.6072 60.4023 -22535.6236 -21848.6163 60.1173 43.5926 106.1753 55176.6415 3.6050 3.7700
TCL: Running 25000 steps at 90 kelvin.
TCL: Setting parameter langevinTemp to 90
TCL: Running for 25000 steps
ETITLE: TS BOND ANGLE DIHED IMPRP ELECT VDW BOUNDARY MISC KINETIC TOTAL TEMP POTENTIAL TOTAL3 TEMPAVG PRESSURE GPRESSURE VOLUME PRESSAVG GPRESSAVG
ENERGY: 50000 1.8634 4.6462 20.4760 0.0000 -27194.4650 4631.8558 0.0000 0.0000 684.6787 -21850.9449 60.3725 -22535.6236 -21849.4357 60.3725 49.0083 106.3219 55176.6415 49.0083 106.3219
ENERGY: 55000 2.1507 6.2303 19.1328 0.0000 -26645.8399 4452.7193 0.0000 0.0000 1033.6804 -21131.9265 91.1462 -22165.6069 -21128.8974 86.8175 48.0387 95.9111 55409.5308 1.2437 1.1743
ENERGY: 60000 1.3685 6.7936 19.2983 0.0000 -26884.9934 4610.1630 0.0000 0.0000 1029.1330 -21218.2370 90.7453 -22247.3700 -21215.4537 90.5986 515.5679 555.9945 55341.3713 8.2338 8.7089
ENERGY: 65000 1.8127 5.8707 20.2007 0.0000 -26905.1495 4631.8100 0.0000 0.0000 1021.3274 -21224.1281 90.0570 -22245.4555 -21221.8081 90.6141 617.3839 669.1356 55249.0087 -1.9191 -2.1194
ENERGY: 70000 2.7600 6.6333 20.2002 0.0000 -26870.8549 4519.2105 0.0000 0.0000 1008.1510 -21313.8999 88.8952 -22322.0509 -21311.3429 90.1208 -162.4792 -126.5327 55626.9048 5.5811 5.5024
ENERGY: 75000 2.2769 6.0677 19.9088 0.0000 -26827.1179 4433.2606 0.0000 0.0000 1030.7491 -21334.8547 90.8878 -22365.6039 -21331.4505 89.7271 -622.3227 -570.4299 55710.6769 7.0142 7.3065
TCL: Running 25000 steps at 120 kelvin.
TCL: Setting parameter langevinTemp to 120
TCL: Running for 25000 steps
ETITLE: TS BOND ANGLE DIHED IMPRP ELECT VDW BOUNDARY MISC KINETIC TOTAL TEMP POTENTIAL TOTAL3 TEMPAVG PRESSURE GPRESSURE VOLUME PRESSAVG GPRESSAVG
ENERGY: 75000 2.2769 6.0677 19.9088 0.0000 -26827.1179 4433.2606 0.0000 0.0000 1030.2430 -21335.3609 90.8432 -22365.6039 -21332.8455 90.8432 -617.3172 -570.3356 55710.6769 -617.3172 -570.3356
ENERGY: 80000 5.4900 6.4394 18.8000 0.0000 -26403.2662 4424.6513 0.0000 0.0000 1349.3948 -20598.4907 118.9848 -21947.8856 -20594.7922 116.8513 66.6690 119.1888 56114.3002 3.9562 3.8509
ENERGY: 85000 2.6869 5.4270 18.2677 0.0000 -26407.0984 4375.7559 0.0000 0.0000 1355.1742 -20649.7867 119.4944 -22004.9609 -20645.1700 119.8798 -244.2040 -143.4833 55979.7244 6.1308 6.3195
ENERGY: 90000 3.4217 6.2375 18.8778 0.0000 -26452.7376 4414.5177 0.0000 0.0000 1344.4065 -20665.2764 118.5450 -22009.6829 -20662.1598 119.9357 -29.9174 29.1424 55894.5953 1.8244 2.1075
ENERGY: 95000 2.9267 5.9511 19.6575 0.0000 -26206.1051 4135.4320 0.0000 0.0000 1351.5247 -20690.6131 119.1726 -22042.1378 -20686.2290 119.5286 -1187.1147 -1148.3158 56040.0218 4.9981 4.6106
ENERGY: 100000 1.7459 6.6468 18.6170 0.0000 -26499.9324 4395.7710 0.0000 0.0000 1382.2520 -20694.8997 121.8820 -22077.1516 -20690.6978 120.0782 -124.5422 -100.6950 55814.2133 3.8309 3.8730
TCL: Running 25000 steps at 150 kelvin.
TCL: Setting parameter langevinTemp to 150
TCL: Running for 25000 steps
ETITLE: TS BOND ANGLE DIHED IMPRP ELECT VDW BOUNDARY MISC KINETIC TOTAL TEMP POTENTIAL TOTAL3 TEMPAVG PRESSURE GPRESSURE VOLUME PRESSAVG GPRESSAVG
ENERGY: 100000 1.7459 6.6468 18.6170 0.0000 -26499.9324 4395.7710 0.0000 0.0000 1381.5996 -20695.5520 121.8245 -22077.1516 -20692.8362 121.8245 -148.6233 -100.4164 55814.2133 -148.6233 -100.4164
ENERGY: 105000 3.9467 8.2106 21.3649 0.0000 -25901.0189 4256.6006 0.0000 0.0000 1691.4203 -19919.4757 149.1434 -21610.8960 -19914.3278 147.0955 52.9528 143.5842 55967.5780 2.6286 2.2273
ENERGY: 110000 3.4501 10.3213 20.2591 0.0000 -25843.9939 4123.6252 0.0000 0.0000 1676.9231 -20009.4153 147.8651 -21686.3384 -20005.2432 149.4871 -633.6754 -550.7155 55845.4989 0.4678 0.4148
ENERGY: 115000 5.4244 8.8506 17.5504 0.0000 -26030.6366 4370.6824 0.0000 0.0000 1695.5705 -19932.5583 149.5094 -21628.1288 -19928.9390 149.6536 480.9977 536.2971 55774.6024 4.0897 3.9727
ENERGY: 120000 2.6750 8.6593 22.1691 0.0000 -25951.9612 4273.5027 0.0000 0.0000 1703.0431 -19941.9120 150.1683 -21644.9551 -19938.2738 150.0357 -21.1836 38.1290 56187.3507 2.9449 3.0717
ENERGY: 125000 4.9214 8.8783 20.6604 0.0000 -26025.8479 4321.1506 0.0000 0.0000 1722.1224 -19948.1148 151.8506 -21670.2371 -19944.5582 150.1132 270.5182 322.8836 55645.2507 2.1797 2.4502
TCL: Running 50000 steps at 180 kelvin.
TCL: Setting parameter langevinTemp to 180
TCL: Running for 50000 steps
ETITLE: TS BOND ANGLE DIHED IMPRP ELECT VDW BOUNDARY MISC KINETIC TOTAL TEMP POTENTIAL TOTAL3 TEMPAVG PRESSURE GPRESSURE VOLUME PRESSAVG GPRESSAVG
ENERGY: 125000 4.9214 8.8783 20.6604 0.0000 -26025.8479 4321.1506 0.0000 0.0000 1721.2596 -19948.9775 151.7745 -21670.2371 -19945.3109 151.7745 268.9316 322.1232 55645.2507 268.9316 322.1232
ENERGY: 135000 3.8575 11.7475 21.0255 0.0000 -25220.9430 4010.9959 0.0000 0.0000 2057.4060 -19115.9105 181.4147 -21173.3165 -19112.1319 180.1924 -178.8178 -124.1511 56056.6950 4.7255 4.7469
ENERGY: 145000 2.3477 16.5502 17.7185 0.0000 -25218.0720 3983.8365 0.0000 0.0000 2043.3184 -19154.3007 180.1725 -21197.6191 -19150.0163 180.2817 -278.1588 -187.4785 55785.1155 3.1562 3.1704
ENERGY: 155000 3.8850 10.5316 18.5656 0.0000 -24923.3365 3760.5051 0.0000 0.0000 2082.5634 -19047.2858 183.6330 -21129.8492 -19040.5428 180.4576 -1260.6791 -1163.7140 56308.8003 -1.3420 -1.7312
ENERGY: 165000 2.4881 7.6887 22.2325 0.0000 -25258.2566 4010.0930 0.0000 0.0000 2051.5869 -19164.1675 180.9016 -21215.7545 -19159.1708 180.1146 -157.8846 -70.4813 55564.4051 8.7444 8.4127
ENERGY: 175000 3.4227 12.1594 19.2252 0.0000 -25373.6053 4089.6397 0.0000 0.0000 2025.0096 -19224.1487 178.5581 -21249.1583 -19220.7454 180.7064 90.4491 131.0626 55854.9167 3.7872 3.7527
TCL: Running 50000 steps at 210 kelvin.
TCL: Setting parameter langevinTemp to 210
TCL: Running for 50000 steps
ETITLE: TS BOND ANGLE DIHED IMPRP ELECT VDW BOUNDARY MISC KINETIC TOTAL TEMP POTENTIAL TOTAL3 TEMPAVG PRESSURE GPRESSURE VOLUME PRESSAVG GPRESSAVG
ENERGY: 175000 3.4227 12.1594 19.2252 0.0000 -25373.6053 4089.6397 0.0000 0.0000 2023.9524 -19225.2060 178.4649 -21249.1583 -19221.3043 178.4649 64.8810 130.2840 55854.9167 64.8810 130.2840
ENERGY: 185000 6.7824 10.0927 18.6086 0.0000 -24184.3245 3698.8125 0.0000 0.0000 2364.7442 -18085.2841 208.5147 -20450.0283 -18078.4697 209.3560 10.4393 98.8269 55403.3212 2.8505 3.2278
ENERGY: 195000 5.7737 9.2729 16.7120 0.0000 -24334.6869 3834.4290 0.0000 0.0000 2348.4863 -18120.0130 207.0811 -20468.4993 -18114.6205 210.3836 888.1447 947.2531 54564.1918 -0.8446 -0.7103
ENERGY: 205000 5.2139 9.3776 21.8328 0.0000 -23968.0014 3604.9765 0.0000 0.0000 2428.4460 -17898.1545 214.1317 -20326.6005 -17892.3293 211.1135 -70.0912 -1.4085 55475.1132 0.4671 0.1313
ENERGY: 215000 5.2525 6.4339 22.8930 0.0000 -24102.0747 3635.3982 0.0000 0.0000 2345.6857 -18086.4114 206.8342 -20432.0971 -18079.2657 209.6152 -209.7858 -174.4908 55903.5834 4.9640 5.0261
ENERGY: 225000 6.7175 9.8724 20.2719 0.0000 -23859.6963 3507.2523 0.0000 0.0000 2351.3939 -17964.1883 207.3375 -20315.5822 -17958.9193 210.3188 -728.5004 -648.9770 56223.2567 1.1311 0.8257
TCL: Running 50000 steps at 240 kelvin.
TCL: Setting parameter langevinTemp to 240
TCL: Running for 50000 steps
ETITLE: TS BOND ANGLE DIHED IMPRP ELECT VDW BOUNDARY MISC KINETIC TOTAL TEMP POTENTIAL TOTAL3 TEMPAVG PRESSURE GPRESSURE VOLUME PRESSAVG GPRESSAVG
ENERGY: 225000 6.7175 9.8724 20.2719 0.0000 -23859.6963 3507.2523 0.0000 0.0000 2350.1847 -17965.3975 207.2309 -20315.5822 -17960.5210 207.2309 -718.8678 -649.2199 56223.2567 -718.8678 -649.2199
ENERGY: 235000 8.1716 10.1785 23.0510 0.0000 -22851.0592 3370.6361 0.0000 0.0000 2663.7950 -16775.2270 234.8839 -19439.0220 -16769.6910 239.8054 237.6922 344.8781 56019.6115 -1.0860 -0.2770
ENERGY: 245000 6.2540 14.0159 19.2007 0.0000 -22883.8256 3309.2028 0.0000 0.0000 2669.6706 -16865.4816 235.4020 -19535.1522 -16862.4384 239.4651 77.5225 191.7018 55866.0236 2.6007 3.2028
ENERGY: 255000 4.5622 12.1683 21.3711 0.0000 -22723.2606 3208.6238 0.0000 0.0000 2777.6531 -16698.8823 244.9235 -19476.5354 -16695.5597 240.2391 -355.0718 -257.1484 56464.6149 -4.0872 -3.4803
ENERGY: 265000 5.9220 13.0021 20.6844 0.0000 -22863.6443 3286.9486 0.0000 0.0000 2710.0739 -16827.0132 238.9646 -19537.0872 -16821.6668 240.5556 -173.8625 -93.0604 56276.5865 4.3418 4.8139
ENERGY: 275000 7.2683 12.1730 22.7321 0.0000 -22808.0907 3249.5133 0.0000 0.0000 2734.3790 -16782.0250 241.1078 -19516.4040 -16773.0454 239.5265 -312.4967 -231.9245 56073.6806 -0.6675 -1.1041
TCL: Running 50000 steps at 270 kelvin.
TCL: Setting parameter langevinTemp to 270
TCL: Running for 50000 steps
ETITLE: TS BOND ANGLE DIHED IMPRP ELECT VDW BOUNDARY MISC KINETIC TOTAL TEMP POTENTIAL TOTAL3 TEMPAVG PRESSURE GPRESSURE VOLUME PRESSAVG GPRESSAVG
ENERGY: 275000 7.2683 12.1730 22.7321 0.0000 -22808.0907 3249.5133 0.0000 0.0000 2733.0517 -16783.3523 240.9907 -19516.4040 -16778.9336 240.9907 -320.7792 -230.6350 56073.6806 -320.7792 -230.6350
ENERGY: 285000 5.2897 9.2783 25.2957 0.0000 -21732.0099 2971.6280 0.0000 0.0000 3090.1049 -15630.4134 272.4744 -18720.5183 -15622.2776 269.6548 -228.2292 -119.9085 57299.0721 6.3536 6.3159
ENERGY: 295000 6.1491 12.8248 20.6310 0.0000 -21700.3699 2984.6995 0.0000 0.0000 3090.8161 -15585.2494 272.5371 -18676.0655 -15581.6048 271.3537 -99.6293 -22.8300 57400.2880 3.8116 3.6731
ENERGY: 305000 7.1949 10.9859 19.1950 0.0000 -21710.3811 2942.1992 0.0000 0.0000 3103.8781 -15626.9280 273.6889 -18730.8060 -15620.0464 269.6182 -240.0809 -151.0786 57228.0203 -1.6612 -1.5431
ENERGY: 315000 8.6566 17.8877 19.0083 0.0000 -21831.4234 3099.6526 0.0000 0.0000 3069.6814 -15616.5367 270.6736 -18686.2182 -15608.4317 270.0801 554.5391 614.9969 56999.2139 3.7937 3.4849
ENERGY: 325000 8.2742 14.5919 21.4559 0.0000 -21593.1993 2923.7362 0.0000 0.0000 3037.7027 -15587.4384 267.8538 -18625.1411 -15583.2647 271.1248 -309.3699 -220.2414 57405.2784 0.7993 0.5958
TCL: Running 1000000 steps at 300 kelvin.
TCL: Setting parameter langevinTemp to 300
TCL: Running for 1000000 steps
ETITLE: TS BOND ANGLE DIHED IMPRP ELECT VDW BOUNDARY MISC KINETIC TOTAL TEMP POTENTIAL TOTAL3 TEMPAVG PRESSURE GPRESSURE VOLUME PRESSAVG GPRESSAVG
ENERGY: 325000 8.2742 14.5919 21.4559 0.0000 -21593.1993 2923.7362 0.0000 0.0000 3036.2369 -15588.9042 267.7245 -18625.1411 -15583.1140 267.7245 -302.2642 -222.8303 57405.2784 -302.2642 -222.8303
ENERGY: 525000 8.5499 14.9413 24.5534 0.0000 -20808.4896 2712.9091 0.0000 0.0000 3343.0731 -14704.4629 294.7803 -18047.5360 -14698.3521 299.9656 -476.5211 -401.3113 58892.9320 -1.4863 -1.4594
ENERGY: 725000 10.6265 13.4478 20.8228 0.0000 -20705.6765 2772.7816 0.0000 0.0000 3424.5408 -14463.4570 301.9638 -17887.9978 -14455.6282 302.2075 -85.8101 -16.5427 59318.4369 0.7057 1.1002
ENERGY: 925000 4.8496 18.7055 21.8611 0.0000 -20817.8168 2802.7852 0.0000 0.0000 3514.1873 -14455.4281 309.8685 -17969.6153 -14450.7077 299.6653 239.9549 343.9612 58255.4317 -0.4736 -0.6239
ENERGY: 1125000 7.8411 17.4059 21.0439 0.0000 -20704.7637 2689.2823 0.0000 0.0000 3415.2637 -14553.9268 301.1458 -17969.1905 -14546.5523 300.2796 -539.6117 -471.4618 59203.9324 3.9117 3.4315
ENERGY: 1325000 12.3490 10.4849 20.7856 0.0000 -20787.1818 2838.4233 0.0000 0.0000 3451.1065 -14454.0325 304.3063 -17905.1390 -14448.7009 302.8744 311.1235 399.9507 58763.3878 3.0018 2.8997
TCL: Exiting due to exit command.
