Info: SIMULATION PARAMETERS:
Info: TIMESTEP               2
Info: NUMBER OF STEPS        0
Info: STEPS PER CYCLE        10
Info: PERIODIC CELL BASIS 1  39.806 0 0
Info: PERIODIC CELL BASIS 2  0 39.115 0
Info: PERIODIC CELL BASIS 3  0 0 44.171
Info: PERIODIC CELL CENTER   0 0 0
Info: WRAPPING WATERS AROUND PERIODIC BOUNDARIES ON OUTPUT.
Info: WRAPPING ALL CLUSTERS AROUND PERIODIC BOUNDARIES ON OUTPUT.
Info: FIRST LDB TIMESTEP     50
Info: LAST LDB TIMESTEP     -1
Info: HOM BACKGROUND SCALING 1
Info: PME BACKGROUND SCALING 1
Info: MIN ATOMS PER PATCH    40
Info: EMPTY PATCH LOAD       40 ATOMS
Info: INITIAL TEMPERATURE    300
Info: CENTER OF MASS MOVING INITIALLY? NO
Info: DIELECTRIC             1
Info: EXCLUDE                SCALED ONE-FOUR
Info: 1-4 ELECTROSTATICS SCALED BY 0.833333
Info: MODIFIED 1-4 VDW PARAMETERS WILL BE USED
Info: DCD FILENAME           mobley_2763835_min.dcd
Info: DCD FREQUENCY          5000
Info: DCD FIRST STEP         5000
Info: DCD FILE WILL CONTAIN UNIT CELL DATA
Info: XST FILENAME           mobley_2763835_min.xst
Info: XST FREQUENCY          5000
Info: NO VELOCITY DCD OUTPUT
Info: NO FORCE DCD OUTPUT
Info: OUTPUT FILENAME        mobley_2763835_min
Info: BINARY OUTPUT FILES WILL BE USED
Info: RESTART FILENAME       mobley_2763835_min.restart
Info: RESTART FREQUENCY      5000
Info: BINARY RESTART FILES WILL BE USED
Info: CUTOFF                 9
Info: PAIRLIST DISTANCE      11
Info: PAIRLIST SHRINK RATE   0.01
Info: PAIRLIST GROW RATE     0.01
Info: PAIRLIST TRIGGER       0.3
Info: PAIRLISTS PER CYCLE    2
Info: PAIRLISTS ENABLED
Info: MARGIN                 8
Info: HYDROGEN GROUP CUTOFF  2.5
Info: PATCH DIMENSION        21.5
Info: ENERGY OUTPUT STEPS    5000
Info: ENERGY EVALUATION STEPS    5000
Info: OUTPUT ENERGY PRECISION 4
Info: CROSSTERM ENERGY INCLUDED IN DIHEDRAL
Info: TIMING OUTPUT STEPS    50000
Info: PRESSURE OUTPUT STEPS  5000
Info: LANGEVIN DYNAMICS ACTIVE
Info: LANGEVIN TEMPERATURE   300
Info: LANGEVIN USING BBK INTEGRATOR
Info: LANGEVIN DAMPING COEFFICIENT IS 1 INVERSE PS
Info: LANGEVIN DYNAMICS APPLIED TO HYDROGENS
Info: LANGEVIN PISTON PRESSURE CONTROL ACTIVE
Info:        TARGET PRESSURE IS 1.01325 BAR
Info:     OSCILLATION PERIOD IS 50 FS
Info:             DECAY TIME IS 25 FS
Info:     PISTON TEMPERATURE IS 300 K
Info:       PRESSURE CONTROL IS GROUP-BASED
Info:    INITIAL STRAIN RATE IS 0 0 0
Info:       CELL FLUCTUATION IS ISOTROPIC
Info: PARTICLE MESH EWALD (PME) ACTIVE
Info: PME TOLERANCE               1e-06
Info: PME EWALD COEFFICIENT       0.348832
Info: PME INTERPOLATION ORDER     4
Info: PME GRID DIMENSIONS         40 40 48
Info: PME MAXIMUM GRID SPACING    1
Info: FULL ELECTROSTATIC EVALUATION FREQUENCY      2
Info: USING VERLET I (r-RESPA) MTS SCHEME.
Info: C1 SPLITTING OF LONG RANGE ELECTROSTATICS
Info: PLACING ATOMS IN PATCHES BY HYDROGEN GROUPS
Info: RIGID BONDS TO HYDROGEN : ALL
Info:         ERROR TOLERANCE : 1e-08
Info:          MAX ITERATIONS : 100
Info: RIGID WATER USING SETTLE ALGORITHM
Info: RANDOM NUMBER SEED     1741326422
Info: USE HYDROGEN BONDS?    NO
Info: Using AMBER format force field!
Info: AMBER PARM FILE        mobley_2763835.prmtop
Info: COORDINATE PDB         mobley_2763835.pdb
Info: Exclusions will be read from PARM file!
Info: SCNB (VDW SCALING)     2
Info: USING ARITHMETIC MEAN TO COMBINE L-J SIGMA PARAMETERS
Info: SUMMARY OF PARAMETERS:
Info: 9 BONDS
Info: 10 ANGLES
Info:   10 HARMONIC
Info:   0 COSINE-BASED
Info: 7 DIHEDRAL
Info: 0 IMPROPER
Info: 0 CROSSTERM
Info: 0 VDW
Info: 36 VDW_PAIRS
Info: 0 NBTHOLE_PAIRS
Info: STRUCTURE SUMMARY:
Info: 4897 ATOMS
Info: 4897 BONDS
Info: 31 ANGLES
Info: 46 DIHEDRALS
Info: 0 IMPROPERS
Info: 0 CROSSTERMS
Info: 4963 EXCLUSIONS
Info: 4888 RIGID BONDS
Info: 9803 DEGREES OF FREEDOM
Info: 1635 HYDROGEN GROUPS
Info: 4 ATOMS IN LARGEST HYDROGEN GROUP
Info: 1635 MIGRATION GROUPS
Info: 4 ATOMS IN LARGEST MIGRATION GROUP
Info: TOTAL MASS = 29416.2 amu
Info: TOTAL CHARGE = -0.000100017 e
Info: MASS DENSITY = 0.710258 g/cm^3
Info: ATOM DENSITY = 0.0712034 atoms/A^3
Info: ADDED 0 IMPLICIT EXCLUSIONS
Info: NONBONDED TABLE R-SQUARED SPACING: 0.0625
Info: NONBONDED TABLE SIZE: 705 POINTS
Info: REMOVING COM VELOCITY 0.203306 -0.0726187 -0.0233502
TCL: Minimizing for 2000 steps
ETITLE: TS BOND ANGLE DIHED IMPRP ELECT VDW BOUNDARY MISC KINETIC TOTAL TEMP POTENTIAL TOTAL3 TEMPAVG PRESSURE GPRESSURE VOLUME PRESSAVG GPRESSAVG
ENERGY: 0 0.1625 0.3501 3.5618 0.0000 -15143.5546 1729.3317 0.0000 0.0000 0.0000 -13410.1485 0.0000 -13410.1485 -13410.1485 0.0000 10979.0596 -15136.8572 68774.7634 10979.0596 -15136.8572
ENERGY: 400 3.4427 2.2937 1.6995 0.0000 -20545.1033 3056.2624 0.0000 0.0000 0.0000 -17481.4050 0.0000 -17481.4050 -17481.4050 0.0000 15806.7459 11139.7664 68774.7634 15806.7459 11139.7664
ENERGY: 800 3.2978 1.7938 1.1756 0.0000 -21650.0495 3553.7023 0.0000 0.0000 0.0000 -18090.0800 0.0000 -18090.0800 -18090.0800 0.0000 18138.6285 13083.7065 68774.7634 18138.6285 13083.7065
ENERGY: 1200 0.3420 1.1403 0.8591 0.0000 -22136.4058 3763.5042 0.0000 0.0000 0.0000 -18370.5602 0.0000 -18370.5602 -18370.5602 0.0000 19168.3271 14066.9924 68774.7634 19168.3271 14066.9924
ENERGY: 1600 0.4162 0.8721 0.8914 0.0000 -22372.3322 3873.3746 0.0000 0.0000 0.0000 -18496.7781 0.0000 -18496.7781 -18496.7781 0.0000 19730.1656 14612.0211 68774.7634 19730.1656 14612.0211
ENERGY: 2000 0.3725 0.8651 0.8518 0.0000 -22524.4289 3940.9732 0.0000 0.0000 0.0000 -18581.3663 0.0000 -18581.3663 -18581.3663 0.0000 20049.1768 14841.7765 68774.7634 20049.1768 14841.7765
TCL: Exiting due to exit command.
Info: NAMD 3.0.1 for Linux-x86_64-multicore
Info: Please visit http://www.ks.uiuc.edu/Research/namd/
Info: for updates, documentation, and support information.
Info: Please cite Phillips et al., J. Chem. Phys. 153:044130 (2020) doi:10.1063/5.0014475
Info: in all publications reporting results obtained with NAMD.
Info: Based on Charm++/Converse 80000 for multicore-linux-x86_64-gcc
Info: Built Mon Oct 14 11:11:06 CDT 2024 by dhardy on athine.ks.uiuc.edu
Info: 1 NAMD  3.0.1  Linux-x86_64-multicore  16    k007  z5358697
Info: Running on 16 processors, 1 nodes, 1 physical nodes.
Info: CPU topology information available.
Info: Charm++/Converse parallel runtime startup completed at 0.011905 s
Info: 1043.45 MB of memory in use based on /proc/self/stat
Info: Configuration file is mobley_2763835_equil.namd
Info: Working in the current directory /srv/scratch/z5358697/prod_prep_3/2763835
TCL: Running 25000 steps at 30 kelvin.
TCL: Suspending until startup complete.
Info: SIMULATION PARAMETERS:
Info: TIMESTEP               2
Info: NUMBER OF STEPS        0
Info: STEPS PER CYCLE        10
Info: PERIODIC CELL BASIS 1  39.806 0 0
Info: PERIODIC CELL BASIS 2  0 39.115 0
Info: PERIODIC CELL BASIS 3  0 0 44.171
Info: PERIODIC CELL CENTER   0 0 0
Info: WRAPPING WATERS AROUND PERIODIC BOUNDARIES ON OUTPUT.
Info: WRAPPING ALL CLUSTERS AROUND PERIODIC BOUNDARIES ON OUTPUT.
Info: FIRST LDB TIMESTEP     50
Info: LAST LDB TIMESTEP     -1
Info: HOM BACKGROUND SCALING 1
Info: PME BACKGROUND SCALING 1
Info: MIN ATOMS PER PATCH    40
Info: EMPTY PATCH LOAD       40 ATOMS
Info: INITIAL TEMPERATURE    300
Info: CENTER OF MASS MOVING INITIALLY? NO
Info: DIELECTRIC             1
Info: EXCLUDE                SCALED ONE-FOUR
Info: 1-4 ELECTROSTATICS SCALED BY 0.833333
Info: MODIFIED 1-4 VDW PARAMETERS WILL BE USED
Info: DCD FILENAME           mobley_2763835_equil.dcd
Info: DCD FREQUENCY          5000
Info: DCD FIRST STEP         5000
Info: DCD FILE WILL CONTAIN UNIT CELL DATA
Info: XST FILENAME           mobley_2763835_equil.xst
Info: XST FREQUENCY          5000
Info: NO VELOCITY DCD OUTPUT
Info: NO FORCE DCD OUTPUT
Info: OUTPUT FILENAME        mobley_2763835_equil
Info: BINARY OUTPUT FILES WILL BE USED
Info: RESTART FILENAME       mobley_2763835_equil.restart
Info: RESTART FREQUENCY      5000
Info: BINARY RESTART FILES WILL BE USED
Info: CUTOFF                 9
Info: PAIRLIST DISTANCE      11
Info: PAIRLIST SHRINK RATE   0.01
Info: PAIRLIST GROW RATE     0.01
Info: PAIRLIST TRIGGER       0.3
Info: PAIRLISTS PER CYCLE    2
Info: PAIRLISTS ENABLED
Info: MARGIN                 8
Info: HYDROGEN GROUP CUTOFF  2.5
Info: PATCH DIMENSION        21.5
Info: ENERGY OUTPUT STEPS    5000
Info: ENERGY EVALUATION STEPS    5000
Info: OUTPUT ENERGY PRECISION 4
Info: CROSSTERM ENERGY INCLUDED IN DIHEDRAL
Info: TIMING OUTPUT STEPS    50000
Info: PRESSURE OUTPUT STEPS  5000
Info: LANGEVIN DYNAMICS ACTIVE
Info: LANGEVIN TEMPERATURE   30
Info: LANGEVIN USING BBK INTEGRATOR
Info: LANGEVIN DAMPING COEFFICIENT IS 1 INVERSE PS
Info: LANGEVIN DYNAMICS APPLIED TO HYDROGENS
Info: LANGEVIN PISTON PRESSURE CONTROL ACTIVE
Info:        TARGET PRESSURE IS 1.01325 BAR
Info:     OSCILLATION PERIOD IS 50 FS
Info:             DECAY TIME IS 25 FS
Info:     PISTON TEMPERATURE IS 300 K
Info:       PRESSURE CONTROL IS GROUP-BASED
Info:    INITIAL STRAIN RATE IS 0 0 0
Info:       CELL FLUCTUATION IS ISOTROPIC
Info: PARTICLE MESH EWALD (PME) ACTIVE
Info: PME TOLERANCE               1e-06
Info: PME EWALD COEFFICIENT       0.348832
Info: PME INTERPOLATION ORDER     4
Info: PME GRID DIMENSIONS         40 40 48
Info: PME MAXIMUM GRID SPACING    1
Info: FULL ELECTROSTATIC EVALUATION FREQUENCY      2
Info: USING VERLET I (r-RESPA) MTS SCHEME.
Info: C1 SPLITTING OF LONG RANGE ELECTROSTATICS
Info: PLACING ATOMS IN PATCHES BY HYDROGEN GROUPS
Info: RIGID BONDS TO HYDROGEN : ALL
Info:         ERROR TOLERANCE : 1e-08
Info:          MAX ITERATIONS : 100
Info: RIGID WATER USING SETTLE ALGORITHM
Info: RANDOM NUMBER SEED     1741326441
Info: USE HYDROGEN BONDS?    NO
Info: Using AMBER format force field!
Info: AMBER PARM FILE        mobley_2763835.prmtop
Info: COORDINATE PDB         mobley_2763835.pdb
Info: Exclusions will be read from PARM file!
Info: SCNB (VDW SCALING)     2
Info: USING ARITHMETIC MEAN TO COMBINE L-J SIGMA PARAMETERS
Info: BINARY COORDINATES     mobley_2763835_min.coor
Info: SUMMARY OF PARAMETERS:
Info: 9 BONDS
Info: 10 ANGLES
Info:   10 HARMONIC
Info:   0 COSINE-BASED
Info: 7 DIHEDRAL
Info: 0 IMPROPER
Info: 0 CROSSTERM
Info: 0 VDW
Info: 36 VDW_PAIRS
Info: 0 NBTHOLE_PAIRS
Info: STRUCTURE SUMMARY:
Info: 4897 ATOMS
Info: 4897 BONDS
Info: 31 ANGLES
Info: 46 DIHEDRALS
Info: 0 IMPROPERS
Info: 0 CROSSTERMS
Info: 4963 EXCLUSIONS
Info: 4888 RIGID BONDS
Info: 9803 DEGREES OF FREEDOM
Info: 1635 HYDROGEN GROUPS
Info: 4 ATOMS IN LARGEST HYDROGEN GROUP
Info: 1635 MIGRATION GROUPS
Info: 4 ATOMS IN LARGEST MIGRATION GROUP
Info: TOTAL MASS = 29416.2 amu
Info: TOTAL CHARGE = -0.000100017 e
Info: MASS DENSITY = 0.710258 g/cm^3
Info: ATOM DENSITY = 0.0712034 atoms/A^3
Info: ADDED 0 IMPLICIT EXCLUSIONS
Info: NONBONDED TABLE R-SQUARED SPACING: 0.0625
Info: NONBONDED TABLE SIZE: 705 POINTS
Info: REMOVING COM VELOCITY 0.0084559 -0.0263231 -0.0467034
TCL: Running for 25000 steps
ETITLE: TS BOND ANGLE DIHED IMPRP ELECT VDW BOUNDARY MISC KINETIC TOTAL TEMP POTENTIAL TOTAL3 TEMPAVG PRESSURE GPRESSURE VOLUME PRESSAVG GPRESSAVG
ENERGY: 0 0.3725 0.8651 0.8518 0.0000 -22524.4289 3940.9732 0.0000 0.0000 2846.1847 -15735.1815 292.2096 -18581.3662 -15734.6110 292.2096 419.9262 456.2896 68774.7634 419.9262 456.2896
ENERGY: 5000 0.7156 1.6013 1.2983 0.0000 -23366.7655 3906.0149 0.0000 0.0000 301.6161 -19155.5194 30.9661 -19457.1355 -19154.6504 47.1473 -762.7329 -710.8437 47533.4259 3.0877 2.8941
ENERGY: 10000 0.2179 1.3484 1.4192 0.0000 -23510.9408 4029.7792 0.0000 0.0000 287.8120 -19190.3642 29.5488 -19478.1761 -19189.5732 30.2085 -93.7524 -56.5934 47333.8676 2.1950 2.3839
ENERGY: 15000 0.2149 1.9810 1.8198 0.0000 -23407.6829 3906.4569 0.0000 0.0000 301.1555 -19196.0548 30.9188 -19497.2104 -19195.1056 30.1250 -806.3272 -766.5248 47478.1052 1.7313 1.4261
ENERGY: 20000 0.3935 1.6620 1.4873 0.0000 -23600.0751 4107.9659 0.0000 0.0000 287.7371 -19200.8293 29.5411 -19488.5664 -19200.1096 29.9183 297.4714 323.0667 47122.0384 1.4334 1.5162
ENERGY: 25000 0.2608 1.0923 1.3806 0.0000 -23559.5193 4060.1018 0.0000 0.0000 293.1654 -19203.5183 30.0985 -19496.6838 -19202.9747 29.9664 -13.2663 39.5350 47226.6789 0.1534 0.2132
TCL: Running 25000 steps at 60 kelvin.
TCL: Setting parameter langevinTemp to 60
TCL: Running for 25000 steps
ETITLE: TS BOND ANGLE DIHED IMPRP ELECT VDW BOUNDARY MISC KINETIC TOTAL TEMP POTENTIAL TOTAL3 TEMPAVG PRESSURE GPRESSURE VOLUME PRESSAVG GPRESSAVG
ENERGY: 25000 0.2608 1.0923 1.3806 0.0000 -23559.5193 4060.1018 0.0000 0.0000 293.0188 -19203.6650 30.0834 -19496.6838 -19203.0205 30.0834 -6.8594 39.3838 47226.6789 -6.8594 39.3838
ENERGY: 30000 0.2999 2.1859 1.4187 0.0000 -23206.8652 3971.6929 0.0000 0.0000 589.3576 -18641.9102 60.5076 -19231.2677 -18641.3025 57.3850 176.9519 210.0591 47404.0615 2.3652 2.4552
ENERGY: 35000 0.5627 1.7386 2.0072 0.0000 -23193.4994 3869.7735 0.0000 0.0000 585.0188 -18734.3986 60.0622 -19319.4175 -18732.5347 60.4263 -532.4490 -487.3402 47266.5198 7.2169 6.7555
ENERGY: 40000 0.7369 1.4712 1.5927 0.0000 -23319.2739 3978.9860 0.0000 0.0000 592.8608 -18743.6263 60.8673 -19336.4871 -18741.7750 59.8757 -17.9415 18.8558 47184.0060 2.0263 1.9471
ENERGY: 45000 1.0449 1.8955 2.0449 0.0000 -23281.6365 3950.2281 0.0000 0.0000 588.5034 -18737.9195 60.4199 -19326.4229 -18736.0709 60.4745 -254.0443 -188.3745 47350.4707 4.1174 3.7065
ENERGY: 50000 0.9999 1.4542 1.5337 0.0000 -23498.6299 4151.8152 0.0000 0.0000 594.4272 -18748.3998 61.0281 -19342.8269 -18747.3382 60.3435 818.5948 893.2149 46944.9455 7.6766 7.8805
TCL: Running 25000 steps at 90 kelvin.
TCL: Setting parameter langevinTemp to 90
TCL: Running for 25000 steps
ETITLE: TS BOND ANGLE DIHED IMPRP ELECT VDW BOUNDARY MISC KINETIC TOTAL TEMP POTENTIAL TOTAL3 TEMPAVG PRESSURE GPRESSURE VOLUME PRESSAVG GPRESSAVG
ENERGY: 50000 0.9999 1.4542 1.5337 0.0000 -23498.6299 4151.8152 0.0000 0.0000 594.1287 -18748.6983 60.9975 -19342.8269 -18747.5046 60.9975 837.8140 892.9720 46944.9455 837.8140 892.9720
ENERGY: 55000 1.2457 2.1984 3.1342 0.0000 -22899.2089 3832.5673 0.0000 0.0000 870.5379 -18189.5253 89.3756 -19060.0632 -18187.4632 87.0947 -335.5742 -255.4228 47791.9346 1.6465 2.1049
ENERGY: 60000 0.5844 3.3868 1.8316 0.0000 -22977.7613 3886.8287 0.0000 0.0000 899.5202 -18185.6096 92.3511 -19085.1298 -18182.4300 90.3421 -73.4875 -26.3200 47775.2654 7.1190 7.1863
ENERGY: 65000 1.7929 1.6427 2.5151 0.0000 -22803.3884 3703.5713 0.0000 0.0000 870.3791 -18223.4874 89.3593 -19093.8665 -18220.8477 90.3145 -1055.3085 -1010.3764 48162.4610 7.4039 7.6693
ENERGY: 70000 0.8922 2.6647 1.3397 0.0000 -23067.4305 3930.7450 0.0000 0.0000 879.3552 -18252.4337 90.2809 -19131.7889 -18249.3978 91.4591 -47.0962 20.2090 47763.9277 3.9407 3.9855
ENERGY: 75000 0.8819 3.2403 1.4659 0.0000 -23059.4472 3918.0132 0.0000 0.0000 896.0215 -18239.8244 91.9919 -19135.8459 -18237.1434 90.1159 21.4601 48.1533 47675.0631 4.4411 4.0932
TCL: Running 25000 steps at 120 kelvin.
TCL: Setting parameter langevinTemp to 120
TCL: Running for 25000 steps
ETITLE: TS BOND ANGLE DIHED IMPRP ELECT VDW BOUNDARY MISC KINETIC TOTAL TEMP POTENTIAL TOTAL3 TEMPAVG PRESSURE GPRESSURE VOLUME PRESSAVG GPRESSAVG
ENERGY: 75000 0.8819 3.2403 1.4659 0.0000 -23059.4472 3918.0132 0.0000 0.0000 895.5983 -18240.2476 91.9485 -19135.8459 -18238.2989 91.9485 2.5025 48.5953 47675.0631 2.5025 48.5953
ENERGY: 80000 0.9340 3.1556 2.2334 0.0000 -22520.3742 3777.1916 0.0000 0.0000 1188.5450 -17548.3146 122.0245 -18736.8596 -17545.0450 117.4671 153.8916 200.6730 48013.9642 8.3223 8.2008
ENERGY: 85000 1.7548 2.4445 1.9014 0.0000 -22624.1208 3821.3855 0.0000 0.0000 1194.2733 -17602.3612 122.6126 -18796.6345 -17599.7924 120.0524 326.3463 384.5108 47648.3306 11.7369 11.9545
ENERGY: 90000 0.5831 3.6615 2.3240 0.0000 -22520.9438 3667.1792 0.0000 0.0000 1195.0718 -17652.1241 122.6946 -18847.1959 -17649.8163 121.0666 -625.6043 -574.8178 47921.9444 3.7646 3.7766
ENERGY: 95000 0.3883 3.6604 1.6394 0.0000 -22709.0002 3788.6781 0.0000 0.0000 1162.2565 -17752.3775 119.3255 -18914.6340 -17749.7394 120.3835 -25.3396 35.0809 47426.2083 1.8063 1.5794
ENERGY: 100000 2.1006 4.4394 3.4702 0.0000 -22733.9877 3813.7217 0.0000 0.0000 1172.6923 -17737.5636 120.3969 -18910.2558 -17732.9117 120.7928 193.3094 250.2366 47268.0153 2.6792 2.7562
TCL: Running 25000 steps at 150 kelvin.
TCL: Setting parameter langevinTemp to 150
TCL: Running for 25000 steps
ETITLE: TS BOND ANGLE DIHED IMPRP ELECT VDW BOUNDARY MISC KINETIC TOTAL TEMP POTENTIAL TOTAL3 TEMPAVG PRESSURE GPRESSURE VOLUME PRESSAVG GPRESSAVG
ENERGY: 100000 2.1006 4.4394 3.4702 0.0000 -22733.9877 3813.7217 0.0000 0.0000 1172.1086 -17738.1472 120.3370 -18910.2558 -17735.7289 120.3370 185.8848 250.8900 47268.0153 185.8848 250.8900
ENERGY: 105000 1.5065 6.3187 4.2377 0.0000 -22121.2091 3569.8132 0.0000 0.0000 1445.0713 -17094.2618 148.3613 -18539.3330 -17090.2458 145.6481 -346.7990 -236.5680 47728.8888 4.1597 4.0885
ENERGY: 110000 2.2208 3.5421 1.9712 0.0000 -22159.6822 3560.2153 0.0000 0.0000 1472.9031 -17118.8298 151.2187 -18591.7329 -17115.9359 150.2557 -613.9457 -529.9651 48066.8099 7.1116 6.7741
ENERGY: 115000 2.4187 4.4129 1.7002 0.0000 -22268.7542 3659.7533 0.0000 0.0000 1465.9200 -17134.5491 150.5018 -18600.4691 -17129.5221 150.4779 -196.4325 -143.1321 48000.9961 3.3781 3.9675
ENERGY: 120000 1.8596 4.0282 3.9089 0.0000 -22306.0972 3685.2499 0.0000 0.0000 1440.8459 -17170.2048 147.9275 -18611.0507 -17165.2566 150.6714 -40.9943 16.0028 47794.5511 0.5471 0.7063
ENERGY: 125000 1.1069 3.3866 3.3143 0.0000 -22257.4973 3635.5790 0.0000 0.0000 1455.7271 -17158.3834 149.4553 -18614.1105 -17153.9768 149.6441 -351.3678 -270.9778 48008.7751 7.8875 7.5519
TCL: Running 50000 steps at 180 kelvin.
TCL: Setting parameter langevinTemp to 180
TCL: Running for 50000 steps
ETITLE: TS BOND ANGLE DIHED IMPRP ELECT VDW BOUNDARY MISC KINETIC TOTAL TEMP POTENTIAL TOTAL3 TEMPAVG PRESSURE GPRESSURE VOLUME PRESSAVG GPRESSAVG
ENERGY: 125000 1.1069 3.3866 3.3143 0.0000 -22257.4973 3635.5790 0.0000 0.0000 1455.0251 -17159.0853 149.3832 -18614.1105 -17156.0631 149.3832 -324.5259 -269.9249 48008.7751 -324.5259 -269.9249
ENERGY: 135000 2.1716 4.0682 2.9019 0.0000 -21857.2045 3680.3620 0.0000 0.0000 1811.8008 -16355.9000 186.0124 -18167.7009 -16352.9513 181.0690 796.3891 867.6037 48191.0664 1.3268 1.1825
ENERGY: 145000 1.5826 2.8880 2.2410 0.0000 -21846.7329 3627.0932 0.0000 0.0000 1770.8615 -16442.0667 181.8092 -18212.9282 -16438.9423 180.5954 719.7772 790.6120 47663.1445 3.1381 2.5287
ENERGY: 155000 2.6960 3.3206 3.3744 0.0000 -21726.3230 3533.2042 0.0000 0.0000 1702.8532 -16480.8747 174.8270 -18183.7278 -16476.7878 180.6401 -1.9188 59.2361 48165.9857 1.2172 1.3970
ENERGY: 165000 2.1790 2.8774 2.3249 0.0000 -21744.4808 3543.9745 0.0000 0.0000 1721.1993 -16471.9259 176.7106 -18193.1251 -16468.0229 179.5862 136.9781 181.5504 48008.2221 3.5970 3.1366
ENERGY: 175000 4.7668 3.0239 2.2954 0.0000 -21601.2399 3394.4464 0.0000 0.0000 1761.5913 -16435.1160 180.8575 -18196.7073 -16431.3505 180.4837 -672.4343 -595.1944 48229.0475 8.5518 8.4903
TCL: Running 50000 steps at 210 kelvin.
TCL: Setting parameter langevinTemp to 210
TCL: Running for 50000 steps
ETITLE: TS BOND ANGLE DIHED IMPRP ELECT VDW BOUNDARY MISC KINETIC TOTAL TEMP POTENTIAL TOTAL3 TEMPAVG PRESSURE GPRESSURE VOLUME PRESSAVG GPRESSAVG
ENERGY: 175000 4.7668 3.0239 2.2954 0.0000 -21601.2399 3394.4464 0.0000 0.0000 1760.6767 -16436.0306 180.7636 -18196.7073 -16433.2846 180.7636 -655.1265 -595.3775 48229.0475 -655.1265 -595.3775
ENERGY: 185000 1.1958 9.4841 3.3770 0.0000 -20927.0355 3306.2538 0.0000 0.0000 2027.5831 -15579.1417 208.1661 -17606.7248 -15574.9596 209.8111 460.9876 498.3295 47594.6461 8.1933 8.0610
ENERGY: 195000 2.5081 3.4420 1.8572 0.0000 -20688.6176 3176.3587 0.0000 0.0000 2075.7978 -15428.6538 213.1162 -17504.4516 -15423.0914 210.1160 44.4580 140.8155 47690.3169 -0.9529 -1.4951
ENERGY: 205000 1.6785 4.8841 2.6675 0.0000 -20503.5419 3081.5495 0.0000 0.0000 2083.4370 -15329.3252 213.9005 -17412.7622 -15324.2382 211.0773 -106.7752 -30.3690 47674.5371 6.6061 6.4075
ENERGY: 215000 5.1941 6.4731 1.6446 0.0000 -20675.4867 3155.5856 0.0000 0.0000 2049.3468 -15457.2425 210.4005 -17506.5893 -15452.1387 210.3289 -307.0602 -197.4946 47956.1867 0.0785 0.1065
ENERGY: 225000 1.4316 6.4115 6.0913 0.0000 -20688.0412 3210.3060 0.0000 0.0000 2019.0522 -15444.7485 207.2903 -17463.8007 -15440.5175 209.0152 73.0360 157.7868 48081.5012 1.4635 0.9612
TCL: Running 50000 steps at 240 kelvin.
TCL: Setting parameter langevinTemp to 240
TCL: Running for 50000 steps
ETITLE: TS BOND ANGLE DIHED IMPRP ELECT VDW BOUNDARY MISC KINETIC TOTAL TEMP POTENTIAL TOTAL3 TEMPAVG PRESSURE GPRESSURE VOLUME PRESSAVG GPRESSAVG
ENERGY: 225000 1.4316 6.4115 6.0913 0.0000 -20688.0412 3210.3060 0.0000 0.0000 2018.0329 -15445.7679 207.1856 -17463.8007 -15442.0154 207.1856 79.3782 158.0557 48081.5012 79.3782 158.0557
ENERGY: 235000 3.6034 3.4338 2.9763 0.0000 -19614.4652 2874.2922 0.0000 0.0000 2345.2526 -14384.9070 240.7803 -16730.1596 -14380.7212 239.0996 -241.7325 -141.1187 48895.2353 2.1816 2.6840
ENERGY: 245000 0.9916 3.8372 8.0660 0.0000 -19495.0075 2749.7857 0.0000 0.0000 2334.9681 -14397.3589 239.7245 -16732.3270 -14389.3293 239.8559 -729.9493 -614.3778 48389.6826 3.4645 3.7530
ENERGY: 255000 1.4040 3.2797 6.0922 0.0000 -19419.1750 2728.0160 0.0000 0.0000 2351.8169 -14328.5662 241.4543 -16680.3831 -14323.5442 239.7551 -752.3228 -630.9812 48958.7856 4.1073 4.3842
ENERGY: 265000 1.0647 7.5230 2.0279 0.0000 -19539.4215 2773.7995 0.0000 0.0000 2344.1080 -14410.8984 240.6628 -16755.0064 -14407.2853 241.0078 -260.7043 -189.2455 47751.1912 -0.4328 -0.3724
ENERGY: 275000 1.6173 8.7910 3.3779 0.0000 -19615.0433 2857.1104 0.0000 0.0000 2290.6028 -14453.5438 235.1696 -16744.1466 -14449.3397 239.2657 -180.2911 -79.9281 48462.4552 2.1814 2.7665
TCL: Running 50000 steps at 270 kelvin.
TCL: Setting parameter langevinTemp to 270
TCL: Running for 50000 steps
ETITLE: TS BOND ANGLE DIHED IMPRP ELECT VDW BOUNDARY MISC KINETIC TOTAL TEMP POTENTIAL TOTAL3 TEMPAVG PRESSURE GPRESSURE VOLUME PRESSAVG GPRESSAVG
ENERGY: 275000 1.6173 8.7910 3.3779 0.0000 -19615.0433 2857.1104 0.0000 0.0000 2289.4282 -14454.7185 235.0490 -16744.1466 -14450.6718 235.0490 -168.6549 -78.8574 48462.4552 -168.6549 -78.8574
ENERGY: 285000 2.3075 10.1380 4.2429 0.0000 -18530.8926 2521.4426 0.0000 0.0000 2652.7922 -13339.9693 272.3545 -15992.7615 -13332.5717 268.7944 -550.6227 -426.2086 49549.9780 4.1590 3.9105
ENERGY: 295000 0.8166 5.6893 4.3038 0.0000 -18569.8054 2570.7333 0.0000 0.0000 2591.3722 -13396.8903 266.0487 -15988.2625 -13392.7954 271.9661 -76.6074 37.7894 49194.4880 1.9524 2.3166
ENERGY: 305000 3.3071 3.9096 6.8013 0.0000 -18647.2756 2547.6192 0.0000 0.0000 2654.4861 -13431.1523 272.5284 -16085.6384 -13426.0518 270.2385 -390.9160 -338.0739 49262.5142 3.0776 3.9067
ENERGY: 315000 1.8664 4.7296 4.7929 0.0000 -18618.9840 2544.8836 0.0000 0.0000 2658.4652 -13404.2463 272.9370 -16062.7115 -13398.8846 270.6787 -199.3860 -140.0672 48800.1652 4.8971 4.8098
ENERGY: 325000 1.6241 6.5748 3.0134 0.0000 -18732.3582 2617.1617 0.0000 0.0000 2576.3941 -13527.5902 264.5110 -16103.9843 -13524.2932 269.9530 92.3989 164.3282 48854.6338 3.0086 2.6574
TCL: Running 1000000 steps at 300 kelvin.
TCL: Setting parameter langevinTemp to 300
TCL: Running for 1000000 steps
ETITLE: TS BOND ANGLE DIHED IMPRP ELECT VDW BOUNDARY MISC KINETIC TOTAL TEMP POTENTIAL TOTAL3 TEMPAVG PRESSURE GPRESSURE VOLUME PRESSAVG GPRESSAVG
ENERGY: 325000 1.6241 6.5748 3.0134 0.0000 -18732.3582 2617.1617 0.0000 0.0000 2575.1398 -13528.8445 264.3822 -16103.9843 -13524.8499 264.3822 80.4408 163.2103 48854.6338 80.4408 163.2103
ENERGY: 525000 2.3857 6.0722 7.1370 0.0000 -17683.9950 2329.8865 0.0000 0.0000 2960.2753 -12378.2382 303.9229 -15338.5136 -12371.0809 299.7034 -198.3006 -121.0383 50318.0149 3.2920 3.0576
ENERGY: 725000 4.4932 4.0444 5.0119 0.0000 -17815.2663 2388.4842 0.0000 0.0000 2875.7069 -12537.5258 295.2405 -15413.2327 -12531.6037 301.3305 -177.5037 -108.1579 50448.3109 2.1909 2.4045
ENERGY: 925000 3.3106 6.9060 3.3421 0.0000 -17720.0498 2323.4537 0.0000 0.0000 2919.9534 -12463.0840 299.7832 -15383.0374 -12460.0414 300.5721 -400.3248 -324.5119 50700.2907 -0.4725 0.1175
ENERGY: 1125000 4.5663 6.4209 3.2793 0.0000 -17886.8998 2500.7043 0.0000 0.0000 2882.5269 -12489.4021 295.9407 -15371.9289 -12484.8677 299.7632 411.0002 490.4475 50616.4764 3.6988 3.2878
ENERGY: 1325000 1.2954 7.1516 2.3619 0.0000 -17689.0798 2303.2349 0.0000 0.0000 2934.3909 -12440.6452 301.2655 -15375.0360 -12431.7502 299.7729 -349.1301 -232.6594 50393.4863 0.2567 0.1331
TCL: Exiting due to exit command.
