Info: SIMULATION PARAMETERS:
Info: TIMESTEP               2
Info: NUMBER OF STEPS        0
Info: STEPS PER CYCLE        10
Info: PERIODIC CELL BASIS 1  39.806 0 0
Info: PERIODIC CELL BASIS 2  0 37.835 0
Info: PERIODIC CELL BASIS 3  0 0 42.247
Info: PERIODIC CELL CENTER   0 0 0
Info: WRAPPING WATERS AROUND PERIODIC BOUNDARIES ON OUTPUT.
Info: WRAPPING ALL CLUSTERS AROUND PERIODIC BOUNDARIES ON OUTPUT.
Info: FIRST LDB TIMESTEP     50
Info: LAST LDB TIMESTEP     -1
Info: HOM BACKGROUND SCALING 1
Info: PME BACKGROUND SCALING 1
Info: MIN ATOMS PER PATCH    40
Info: EMPTY PATCH LOAD       40 ATOMS
Info: INITIAL TEMPERATURE    300
Info: CENTER OF MASS MOVING INITIALLY? NO
Info: DIELECTRIC             1
Info: EXCLUDE                SCALED ONE-FOUR
Info: 1-4 ELECTROSTATICS SCALED BY 0.833333
Info: MODIFIED 1-4 VDW PARAMETERS WILL BE USED
Info: DCD FILENAME           mobley_2925352_min.dcd
Info: DCD FREQUENCY          5000
Info: DCD FIRST STEP         5000
Info: DCD FILE WILL CONTAIN UNIT CELL DATA
Info: XST FILENAME           mobley_2925352_min.xst
Info: XST FREQUENCY          5000
Info: NO VELOCITY DCD OUTPUT
Info: NO FORCE DCD OUTPUT
Info: OUTPUT FILENAME        mobley_2925352_min
Info: BINARY OUTPUT FILES WILL BE USED
Info: RESTART FILENAME       mobley_2925352_min.restart
Info: RESTART FREQUENCY      5000
Info: BINARY RESTART FILES WILL BE USED
Info: CUTOFF                 9
Info: PAIRLIST DISTANCE      11
Info: PAIRLIST SHRINK RATE   0.01
Info: PAIRLIST GROW RATE     0.01
Info: PAIRLIST TRIGGER       0.3
Info: PAIRLISTS PER CYCLE    2
Info: PAIRLISTS ENABLED
Info: MARGIN                 8
Info: HYDROGEN GROUP CUTOFF  2.5
Info: PATCH DIMENSION        21.5
Info: ENERGY OUTPUT STEPS    5000
Info: ENERGY EVALUATION STEPS    5000
Info: OUTPUT ENERGY PRECISION 4
Info: CROSSTERM ENERGY INCLUDED IN DIHEDRAL
Info: TIMING OUTPUT STEPS    50000
Info: PRESSURE OUTPUT STEPS  5000
Info: LANGEVIN DYNAMICS ACTIVE
Info: LANGEVIN TEMPERATURE   300
Info: LANGEVIN USING BBK INTEGRATOR
Info: LANGEVIN DAMPING COEFFICIENT IS 1 INVERSE PS
Info: LANGEVIN DYNAMICS APPLIED TO HYDROGENS
Info: LANGEVIN PISTON PRESSURE CONTROL ACTIVE
Info:        TARGET PRESSURE IS 1.01325 BAR
Info:     OSCILLATION PERIOD IS 50 FS
Info:             DECAY TIME IS 25 FS
Info:     PISTON TEMPERATURE IS 300 K
Info:       PRESSURE CONTROL IS GROUP-BASED
Info:    INITIAL STRAIN RATE IS 0 0 0
Info:       CELL FLUCTUATION IS ISOTROPIC
Info: PARTICLE MESH EWALD (PME) ACTIVE
Info: PME TOLERANCE               1e-06
Info: PME EWALD COEFFICIENT       0.348832
Info: PME INTERPOLATION ORDER     4
Info: PME GRID DIMENSIONS         40 40 44
Info: PME MAXIMUM GRID SPACING    1
Info: FULL ELECTROSTATIC EVALUATION FREQUENCY      2
Info: USING VERLET I (r-RESPA) MTS SCHEME.
Info: C1 SPLITTING OF LONG RANGE ELECTROSTATICS
Info: PLACING ATOMS IN PATCHES BY HYDROGEN GROUPS
Info: RIGID BONDS TO HYDROGEN : ALL
Info:         ERROR TOLERANCE : 1e-08
Info:          MAX ITERATIONS : 100
Info: RIGID WATER USING SETTLE ALGORITHM
Info: RANDOM NUMBER SEED     1741323657
Info: USE HYDROGEN BONDS?    NO
Info: Using AMBER format force field!
Info: AMBER PARM FILE        mobley_2925352.prmtop
Info: COORDINATE PDB         mobley_2925352.pdb
Info: Exclusions will be read from PARM file!
Info: SCNB (VDW SCALING)     2
Info: USING ARITHMETIC MEAN TO COMBINE L-J SIGMA PARAMETERS
Info: SUMMARY OF PARAMETERS:
Info: 8 BONDS
Info: 7 ANGLES
Info:   7 HARMONIC
Info:   0 COSINE-BASED
Info: 4 DIHEDRAL
Info: 0 IMPROPER
Info: 0 CROSSTERM
Info: 0 VDW
Info: 36 VDW_PAIRS
Info: 0 NBTHOLE_PAIRS
Info: STRUCTURE SUMMARY:
Info: 4615 ATOMS
Info: 4615 BONDS
Info: 25 ANGLES
Info: 37 DIHEDRALS
Info: 0 IMPROPERS
Info: 0 CROSSTERMS
Info: 4669 EXCLUSIONS
Info: 4607 RIGID BONDS
Info: 9238 DEGREES OF FREEDOM
Info: 1541 HYDROGEN GROUPS
Info: 4 ATOMS IN LARGEST HYDROGEN GROUP
Info: 1541 MIGRATION GROUPS
Info: 4 ATOMS IN LARGEST MIGRATION GROUP
Info: TOTAL MASS = 27726.7 amu
Info: TOTAL CHARGE = 0.00010002 e
Info: MASS DENSITY = 0.723634 g/cm^3
Info: ATOM DENSITY = 0.0725327 atoms/A^3
Info: ADDED 0 IMPLICIT EXCLUSIONS
Info: NONBONDED TABLE R-SQUARED SPACING: 0.0625
Info: NONBONDED TABLE SIZE: 705 POINTS
Info: REMOVING COM VELOCITY -0.0706764 -0.0923476 0.179604
TCL: Minimizing for 2000 steps
ETITLE: TS BOND ANGLE DIHED IMPRP ELECT VDW BOUNDARY MISC KINETIC TOTAL TEMP POTENTIAL TOTAL3 TEMPAVG PRESSURE GPRESSURE VOLUME PRESSAVG GPRESSAVG
ENERGY: 0 0.1649 0.1475 0.0003 0.0000 -14381.8137 1659.8332 0.0000 0.0000 0.0000 -12721.6678 0.0000 -12721.6678 -12721.6678 0.0000 11292.0629 -15708.6842 63626.5172 11292.0629 -15708.6842
ENERGY: 400 2.8566 3.0369 0.2051 0.0000 -19141.1459 2712.1665 0.0000 0.0000 0.0000 -16422.8808 0.0000 -16422.8808 -16422.8808 0.0000 15319.9235 15199.8403 63626.5172 15319.9235 15199.8403
ENERGY: 800 0.6770 0.8634 0.2631 0.0000 -20275.2382 3223.2474 0.0000 0.0000 0.0000 -17050.1872 0.0000 -17050.1872 -17050.1872 0.0000 17833.1948 17663.2484 63626.5172 17833.1948 17663.2484
ENERGY: 1200 9.2009 4.6139 0.3394 0.0000 -20796.4446 3470.8845 0.0000 0.0000 0.0000 -17311.4060 0.0000 -17311.4060 -17311.4060 0.0000 19118.0400 18912.3368 63626.5172 19118.0400 18912.3368
ENERGY: 1600 0.2808 0.2051 0.1763 0.0000 -20931.1877 3499.1244 0.0000 0.0000 0.0000 -17431.4011 0.0000 -17431.4011 -17431.4011 0.0000 19329.8406 19097.7214 63626.5172 19329.8406 19097.7214
ENERGY: 2000 0.2545 0.1765 0.2102 0.0000 -21046.5563 3539.3325 0.0000 0.0000 0.0000 -17506.5825 0.0000 -17506.5825 -17506.5825 0.0000 19585.6257 19339.2210 63626.5172 19585.6257 19339.2210
TCL: Exiting due to exit command.
Info: NAMD 3.0.1 for Linux-x86_64-multicore
Info: Please visit http://www.ks.uiuc.edu/Research/namd/
Info: for updates, documentation, and support information.
Info: Please cite Phillips et al., J. Chem. Phys. 153:044130 (2020) doi:10.1063/5.0014475
Info: in all publications reporting results obtained with NAMD.
Info: Based on Charm++/Converse 80000 for multicore-linux-x86_64-gcc
Info: Built Mon Oct 14 11:11:06 CDT 2024 by dhardy on athine.ks.uiuc.edu
Info: 1 NAMD  3.0.1  Linux-x86_64-multicore  16    k065  z5358697
Info: Running on 16 processors, 1 nodes, 1 physical nodes.
Info: CPU topology information available.
Info: Charm++/Converse parallel runtime startup completed at 0.0101246 s
Info: 1043.46 MB of memory in use based on /proc/self/stat
Info: Configuration file is mobley_2925352_equil.namd
Info: Working in the current directory /srv/scratch/z5358697/prod_prep_3/2925352
TCL: Running 25000 steps at 30 kelvin.
TCL: Suspending until startup complete.
Info: SIMULATION PARAMETERS:
Info: TIMESTEP               2
Info: NUMBER OF STEPS        0
Info: STEPS PER CYCLE        10
Info: PERIODIC CELL BASIS 1  39.806 0 0
Info: PERIODIC CELL BASIS 2  0 37.835 0
Info: PERIODIC CELL BASIS 3  0 0 42.247
Info: PERIODIC CELL CENTER   0 0 0
Info: WRAPPING WATERS AROUND PERIODIC BOUNDARIES ON OUTPUT.
Info: WRAPPING ALL CLUSTERS AROUND PERIODIC BOUNDARIES ON OUTPUT.
Info: FIRST LDB TIMESTEP     50
Info: LAST LDB TIMESTEP     -1
Info: HOM BACKGROUND SCALING 1
Info: PME BACKGROUND SCALING 1
Info: MIN ATOMS PER PATCH    40
Info: EMPTY PATCH LOAD       40 ATOMS
Info: INITIAL TEMPERATURE    300
Info: CENTER OF MASS MOVING INITIALLY? NO
Info: DIELECTRIC             1
Info: EXCLUDE                SCALED ONE-FOUR
Info: 1-4 ELECTROSTATICS SCALED BY 0.833333
Info: MODIFIED 1-4 VDW PARAMETERS WILL BE USED
Info: DCD FILENAME           mobley_2925352_equil.dcd
Info: DCD FREQUENCY          5000
Info: DCD FIRST STEP         5000
Info: DCD FILE WILL CONTAIN UNIT CELL DATA
Info: XST FILENAME           mobley_2925352_equil.xst
Info: XST FREQUENCY          5000
Info: NO VELOCITY DCD OUTPUT
Info: NO FORCE DCD OUTPUT
Info: OUTPUT FILENAME        mobley_2925352_equil
Info: BINARY OUTPUT FILES WILL BE USED
Info: RESTART FILENAME       mobley_2925352_equil.restart
Info: RESTART FREQUENCY      5000
Info: BINARY RESTART FILES WILL BE USED
Info: CUTOFF                 9
Info: PAIRLIST DISTANCE      11
Info: PAIRLIST SHRINK RATE   0.01
Info: PAIRLIST GROW RATE     0.01
Info: PAIRLIST TRIGGER       0.3
Info: PAIRLISTS PER CYCLE    2
Info: PAIRLISTS ENABLED
Info: MARGIN                 8
Info: HYDROGEN GROUP CUTOFF  2.5
Info: PATCH DIMENSION        21.5
Info: ENERGY OUTPUT STEPS    5000
Info: ENERGY EVALUATION STEPS    5000
Info: OUTPUT ENERGY PRECISION 4
Info: CROSSTERM ENERGY INCLUDED IN DIHEDRAL
Info: TIMING OUTPUT STEPS    50000
Info: PRESSURE OUTPUT STEPS  5000
Info: LANGEVIN DYNAMICS ACTIVE
Info: LANGEVIN TEMPERATURE   30
Info: LANGEVIN USING BBK INTEGRATOR
Info: LANGEVIN DAMPING COEFFICIENT IS 1 INVERSE PS
Info: LANGEVIN DYNAMICS APPLIED TO HYDROGENS
Info: LANGEVIN PISTON PRESSURE CONTROL ACTIVE
Info:        TARGET PRESSURE IS 1.01325 BAR
Info:     OSCILLATION PERIOD IS 50 FS
Info:             DECAY TIME IS 25 FS
Info:     PISTON TEMPERATURE IS 300 K
Info:       PRESSURE CONTROL IS GROUP-BASED
Info:    INITIAL STRAIN RATE IS 0 0 0
Info:       CELL FLUCTUATION IS ISOTROPIC
Info: PARTICLE MESH EWALD (PME) ACTIVE
Info: PME TOLERANCE               1e-06
Info: PME EWALD COEFFICIENT       0.348832
Info: PME INTERPOLATION ORDER     4
Info: PME GRID DIMENSIONS         40 40 44
Info: PME MAXIMUM GRID SPACING    1
Info: FULL ELECTROSTATIC EVALUATION FREQUENCY      2
Info: USING VERLET I (r-RESPA) MTS SCHEME.
Info: C1 SPLITTING OF LONG RANGE ELECTROSTATICS
Info: PLACING ATOMS IN PATCHES BY HYDROGEN GROUPS
Info: RIGID BONDS TO HYDROGEN : ALL
Info:         ERROR TOLERANCE : 1e-08
Info:          MAX ITERATIONS : 100
Info: RIGID WATER USING SETTLE ALGORITHM
Info: RANDOM NUMBER SEED     1741323670
Info: USE HYDROGEN BONDS?    NO
Info: Using AMBER format force field!
Info: AMBER PARM FILE        mobley_2925352.prmtop
Info: COORDINATE PDB         mobley_2925352.pdb
Info: Exclusions will be read from PARM file!
Info: SCNB (VDW SCALING)     2
Info: USING ARITHMETIC MEAN TO COMBINE L-J SIGMA PARAMETERS
Info: BINARY COORDINATES     mobley_2925352_min.coor
Info: SUMMARY OF PARAMETERS:
Info: 8 BONDS
Info: 7 ANGLES
Info:   7 HARMONIC
Info:   0 COSINE-BASED
Info: 4 DIHEDRAL
Info: 0 IMPROPER
Info: 0 CROSSTERM
Info: 0 VDW
Info: 36 VDW_PAIRS
Info: 0 NBTHOLE_PAIRS
Info: STRUCTURE SUMMARY:
Info: 4615 ATOMS
Info: 4615 BONDS
Info: 25 ANGLES
Info: 37 DIHEDRALS
Info: 0 IMPROPERS
Info: 0 CROSSTERMS
Info: 4669 EXCLUSIONS
Info: 4607 RIGID BONDS
Info: 9238 DEGREES OF FREEDOM
Info: 1541 HYDROGEN GROUPS
Info: 4 ATOMS IN LARGEST HYDROGEN GROUP
Info: 1541 MIGRATION GROUPS
Info: 4 ATOMS IN LARGEST MIGRATION GROUP
Info: TOTAL MASS = 27726.7 amu
Info: TOTAL CHARGE = 0.00010002 e
Info: MASS DENSITY = 0.723634 g/cm^3
Info: ATOM DENSITY = 0.0725327 atoms/A^3
Info: ADDED 0 IMPLICIT EXCLUSIONS
Info: NONBONDED TABLE R-SQUARED SPACING: 0.0625
Info: NONBONDED TABLE SIZE: 705 POINTS
Info: REMOVING COM VELOCITY 0.118445 -0.0569142 -0.0954931
TCL: Running for 25000 steps
ETITLE: TS BOND ANGLE DIHED IMPRP ELECT VDW BOUNDARY MISC KINETIC TOTAL TEMP POTENTIAL TOTAL3 TEMPAVG PRESSURE GPRESSURE VOLUME PRESSAVG GPRESSAVG
ENERGY: 0 0.2545 0.1765 0.2102 0.0000 -21046.5563 3539.3325 0.0000 0.0000 2737.6531 -14768.9294 298.2571 -17506.5825 -14768.3483 298.2571 -135.4534 -107.0529 63626.5172 -135.4534 -107.0529
ENERGY: 5000 0.2753 0.6092 0.2701 0.0000 -21965.2759 3623.8605 0.0000 0.0000 283.7063 -18056.5545 30.9087 -18340.2608 -18055.5153 48.1679 -1095.1967 -1029.0570 45097.9212 2.6270 2.7997
ENERGY: 10000 0.4539 0.2470 0.7529 0.0000 -22125.7999 3762.0736 0.0000 0.0000 276.8602 -18085.4122 30.1629 -18362.2724 -18084.3647 30.2166 -394.9668 -354.6893 44759.7351 2.5866 2.7097
ENERGY: 15000 0.5812 0.6568 0.1639 0.0000 -22145.2657 3766.5286 0.0000 0.0000 273.7301 -18103.6052 29.8219 -18377.3352 -18102.9360 30.0811 -413.9347 -376.7682 44843.0699 9.1032 8.9943
ENERGY: 20000 0.3879 0.7322 0.2851 0.0000 -22248.8114 3872.5831 0.0000 0.0000 283.3676 -18091.4554 30.8719 -18374.8231 -18090.5480 29.9389 220.5881 274.4633 44643.9708 5.7601 5.8549
ENERGY: 25000 0.3900 0.4618 0.6532 0.0000 -22109.9342 3724.5317 0.0000 0.0000 278.7315 -18105.1661 30.3668 -18383.8976 -18104.3744 30.1852 -690.4223 -628.6808 44899.6769 -2.0132 -2.1877
TCL: Running 25000 steps at 60 kelvin.
TCL: Setting parameter langevinTemp to 60
TCL: Running for 25000 steps
ETITLE: TS BOND ANGLE DIHED IMPRP ELECT VDW BOUNDARY MISC KINETIC TOTAL TEMP POTENTIAL TOTAL3 TEMPAVG PRESSURE GPRESSURE VOLUME PRESSAVG GPRESSAVG
ENERGY: 25000 0.3900 0.4618 0.6532 0.0000 -22109.9342 3724.5317 0.0000 0.0000 278.5997 -18105.2978 30.3524 -18383.8976 -18104.7423 30.3524 -682.5237 -628.6999 44899.6769 -682.5237 -628.6999
ENERGY: 30000 0.4678 0.5967 1.3015 0.0000 -21791.5837 3688.2927 0.0000 0.0000 543.8326 -17557.0924 59.2485 -18100.9250 -17556.5781 57.0939 -181.7471 -153.7991 45089.5979 4.8388 4.8433
ENERGY: 35000 1.7354 1.4095 0.9378 0.0000 -21617.8438 3488.7040 0.0000 0.0000 555.7477 -17569.3096 60.5466 -18125.0572 -17568.0841 60.8191 -1396.7084 -1331.2561 45371.9553 4.5688 4.4732
ENERGY: 40000 0.2563 0.8433 0.7718 0.0000 -21905.7507 3731.8904 0.0000 0.0000 556.7985 -17615.1905 60.6611 -18171.9889 -17613.0103 60.4008 -113.6799 -65.5847 45008.5172 6.2259 6.2075
ENERGY: 45000 0.3834 1.4718 1.5322 0.0000 -21961.0191 3767.3447 0.0000 0.0000 557.7237 -17632.5634 60.7619 -18190.2870 -17631.2756 60.1267 19.2319 71.1062 44915.7682 5.3007 5.2579
ENERGY: 50000 0.6929 1.5039 0.6152 0.0000 -22075.0490 3854.6416 0.0000 0.0000 559.4287 -17658.1667 60.9477 -18217.5954 -17656.3811 60.3725 527.9060 579.4824 44615.6227 4.1905 3.9044
TCL: Running 25000 steps at 90 kelvin.
TCL: Setting parameter langevinTemp to 90
TCL: Running for 25000 steps
ETITLE: TS BOND ANGLE DIHED IMPRP ELECT VDW BOUNDARY MISC KINETIC TOTAL TEMP POTENTIAL TOTAL3 TEMPAVG PRESSURE GPRESSURE VOLUME PRESSAVG GPRESSAVG
ENERGY: 50000 0.6929 1.5039 0.6152 0.0000 -22075.0490 3854.6416 0.0000 0.0000 559.1569 -17658.4385 60.9181 -18217.5954 -17657.2664 60.9181 523.8684 579.5567 44615.6227 523.8684 579.5567
ENERGY: 55000 1.9705 1.3614 1.1118 0.0000 -21378.0280 3466.8511 0.0000 0.0000 821.2632 -17085.4700 89.4736 -17906.7331 -17082.8129 87.1689 -872.1973 -812.3534 45208.6478 3.2437 3.3900
ENERGY: 60000 0.9611 1.2179 1.2950 0.0000 -21488.8221 3533.3337 0.0000 0.0000 801.8666 -17150.1479 87.3604 -17952.0145 -17148.0722 90.6689 -576.5304 -525.1108 44983.4802 -1.1069 -1.0268
ENERGY: 65000 1.1856 1.9196 0.9089 0.0000 -21662.8558 3667.7851 0.0000 0.0000 813.0477 -17178.0089 88.5785 -17991.0566 -17176.1254 90.5996 122.5846 165.2559 44494.7162 -2.9341 -2.7311
ENERGY: 70000 0.4611 1.0929 1.2682 0.0000 -21642.7372 3634.7057 0.0000 0.0000 831.4729 -17173.7364 90.5859 -18005.2093 -17172.0476 89.8949 -20.7956 39.1768 44437.1031 2.8501 2.6525
ENERGY: 75000 0.3259 1.4085 1.2977 0.0000 -21663.5742 3666.6290 0.0000 0.0000 823.0781 -17170.8350 89.6713 -17993.9132 -17168.6526 91.2613 156.7733 228.6238 44241.4907 4.9181 4.7072
TCL: Running 25000 steps at 120 kelvin.
TCL: Setting parameter langevinTemp to 120
TCL: Running for 25000 steps
ETITLE: TS BOND ANGLE DIHED IMPRP ELECT VDW BOUNDARY MISC KINETIC TOTAL TEMP POTENTIAL TOTAL3 TEMPAVG PRESSURE GPRESSURE VOLUME PRESSAVG GPRESSAVG
ENERGY: 75000 0.3259 1.4085 1.2977 0.0000 -21663.5742 3666.6290 0.0000 0.0000 822.6658 -17171.2474 89.6264 -17993.9132 -17169.5772 89.6264 164.4867 228.5426 44241.4907 164.4867 228.5426
ENERGY: 80000 1.7234 1.9155 1.7321 0.0000 -21267.3380 3500.2667 0.0000 0.0000 1109.1630 -16652.5373 120.8392 -17761.7002 -16649.1601 117.1040 -184.6736 -168.6575 44457.9731 -1.8458 -1.3159
ENERGY: 85000 0.8426 2.3306 1.8852 0.0000 -21252.6575 3466.1369 0.0000 0.0000 1113.7685 -16667.6937 121.3409 -17781.4622 -16664.7619 119.5929 -461.9256 -391.1386 44544.7221 -0.6860 -1.1325
ENERGY: 90000 1.1768 1.6335 1.7624 0.0000 -21344.9883 3534.2799 0.0000 0.0000 1130.6350 -16675.5006 123.1785 -17806.1357 -16673.6818 120.0399 -327.2749 -262.7227 44793.7766 -1.2903 -1.0846
ENERGY: 95000 0.3008 1.1017 1.8421 0.0000 -21494.1579 3650.5291 0.0000 0.0000 1098.1596 -16742.2247 119.6404 -17840.3843 -16740.2727 120.5674 223.5558 277.1947 44876.5545 4.1760 4.3645
ENERGY: 100000 0.6308 1.9848 1.9226 0.0000 -21431.4402 3585.9237 0.0000 0.0000 1093.9386 -16747.0397 119.1806 -17840.9783 -16744.2945 120.6783 -77.0088 -1.1797 44746.8497 4.1075 3.7450
TCL: Running 25000 steps at 150 kelvin.
TCL: Setting parameter langevinTemp to 150
TCL: Running for 25000 steps
ETITLE: TS BOND ANGLE DIHED IMPRP ELECT VDW BOUNDARY MISC KINETIC TOTAL TEMP POTENTIAL TOTAL3 TEMPAVG PRESSURE GPRESSURE VOLUME PRESSAVG GPRESSAVG
ENERGY: 100000 0.6308 1.9848 1.9226 0.0000 -21431.4402 3585.9237 0.0000 0.0000 1093.3961 -16747.5822 119.1214 -17840.9783 -16745.1357 119.1214 -58.9684 -1.4388 44746.8497 -58.9684 -1.4388
ENERGY: 105000 3.0948 1.3556 1.0549 0.0000 -20818.5933 3340.4758 0.0000 0.0000 1368.9611 -16103.6511 149.1432 -17472.6121 -16100.0361 146.1881 -674.9095 -643.5184 45317.6939 -0.9028 -1.5599
ENERGY: 110000 1.1313 3.7857 0.9860 0.0000 -21021.5717 3489.2840 0.0000 0.0000 1358.4817 -16167.9031 148.0015 -17526.3848 -16164.6523 150.5296 221.3995 261.5318 44770.8827 2.4094 2.0339
ENERGY: 115000 0.9927 2.3341 3.0495 0.0000 -21082.3648 3529.9637 0.0000 0.0000 1402.0638 -16143.9610 152.7496 -17546.0249 -16140.8542 150.3071 268.5482 339.8658 44832.5270 1.4645 0.6551
ENERGY: 120000 1.3161 3.7376 2.4886 0.0000 -21073.8251 3519.6780 0.0000 0.0000 1356.6415 -16189.9633 147.8011 -17546.6048 -16186.4419 149.8353 261.0108 302.4481 44803.1808 4.4694 4.3264
ENERGY: 125000 1.2644 2.3374 1.1262 0.0000 -20999.0635 3410.5845 0.0000 0.0000 1401.9409 -16181.8101 152.7363 -17583.7510 -16179.0029 150.5417 -433.0439 -363.3149 45122.8614 3.0975 2.7857
TCL: Running 50000 steps at 180 kelvin.
TCL: Setting parameter langevinTemp to 180
TCL: Running for 50000 steps
ETITLE: TS BOND ANGLE DIHED IMPRP ELECT VDW BOUNDARY MISC KINETIC TOTAL TEMP POTENTIAL TOTAL3 TEMPAVG PRESSURE GPRESSURE VOLUME PRESSAVG GPRESSAVG
ENERGY: 125000 1.2644 2.3374 1.1262 0.0000 -20999.0635 3410.5845 0.0000 0.0000 1401.2430 -16182.5080 152.6602 -17583.7510 -16179.2800 152.6602 -417.7619 -364.6474 45122.8614 -417.7619 -364.6474
ENERGY: 135000 0.6362 2.8579 1.3886 0.0000 -20256.9491 3082.7631 0.0000 0.0000 1627.3311 -15541.9723 177.2917 -17169.3033 -15536.7817 179.5070 -1208.2745 -1124.6376 45370.3051 4.8562 4.6320
ENERGY: 145000 0.5930 3.7166 3.2277 0.0000 -20643.3061 3468.6353 0.0000 0.0000 1667.3892 -15499.7443 181.6559 -17167.1335 -15495.5432 181.1283 841.0043 905.3106 44905.3481 3.5881 2.8690
ENERGY: 155000 0.9125 3.4858 2.3730 0.0000 -20569.6732 3356.5845 0.0000 0.0000 1631.7637 -15574.5537 177.7746 -17206.3174 -15569.4033 179.3170 55.4605 177.4890 45442.7720 4.0236 3.9014
ENERGY: 165000 2.0638 2.9777 0.4907 0.0000 -20456.4792 3243.1815 0.0000 0.0000 1647.7925 -15559.9729 179.5209 -17207.7655 -15557.6880 179.0740 -364.2490 -322.2451 45103.1952 -0.9165 -0.7957
ENERGY: 175000 1.8887 4.6674 2.5817 0.0000 -20383.2039 3249.0261 0.0000 0.0000 1653.1111 -15471.9291 180.1003 -17125.0401 -15469.7740 180.2024 -18.6440 58.6898 44857.5883 0.9442 1.0710
TCL: Running 50000 steps at 210 kelvin.
TCL: Setting parameter langevinTemp to 210
TCL: Running for 50000 steps
ETITLE: TS BOND ANGLE DIHED IMPRP ELECT VDW BOUNDARY MISC KINETIC TOTAL TEMP POTENTIAL TOTAL3 TEMPAVG PRESSURE GPRESSURE VOLUME PRESSAVG GPRESSAVG
ENERGY: 175000 1.8887 4.6674 2.5817 0.0000 -20383.2039 3249.0261 0.0000 0.0000 1652.2840 -15472.7561 180.0102 -17125.0401 -15469.3858 180.0102 -4.0883 57.3534 44857.5883 -4.0883 57.3534
ENERGY: 185000 1.0683 3.2274 1.8195 0.0000 -19391.1898 2892.1968 0.0000 0.0000 1912.5662 -14580.3115 208.3670 -16492.8778 -14576.5666 208.9853 -598.6231 -525.6498 45723.8022 8.1536 8.2626
ENERGY: 195000 1.5728 1.8187 1.7927 0.0000 -19511.5982 3052.1042 0.0000 0.0000 1947.7696 -14506.5402 212.2023 -16454.3098 -14503.1446 210.2911 573.8401 649.9533 44518.8943 5.1231 5.1275
ENERGY: 205000 0.7728 1.9645 1.4812 0.0000 -19402.7917 2890.5336 0.0000 0.0000 1864.7133 -14643.3262 203.1536 -16508.0395 -14638.7821 208.7504 -655.1115 -620.5344 45283.1530 -1.2494 -0.6394
ENERGY: 215000 2.3460 3.5575 1.2994 0.0000 -19470.8569 2964.6601 0.0000 0.0000 1911.6299 -14587.3642 208.2650 -16498.9941 -14581.9389 210.5349 62.4985 155.8918 44483.3473 2.0240 1.7881
ENERGY: 225000 2.3596 3.9403 1.3363 0.0000 -19417.3468 2957.8332 0.0000 0.0000 1867.6662 -14584.2113 203.4753 -16451.8775 -14581.3689 209.4434 -84.2173 0.1564 44773.6094 2.5900 2.8847
TCL: Running 50000 steps at 240 kelvin.
TCL: Setting parameter langevinTemp to 240
TCL: Running for 50000 steps
ETITLE: TS BOND ANGLE DIHED IMPRP ELECT VDW BOUNDARY MISC KINETIC TOTAL TEMP POTENTIAL TOTAL3 TEMPAVG PRESSURE GPRESSURE VOLUME PRESSAVG GPRESSAVG
ENERGY: 225000 2.3596 3.9403 1.3363 0.0000 -19417.3468 2957.8332 0.0000 0.0000 1866.7337 -14585.1438 203.3737 -16451.8775 -14581.4247 203.3737 -87.1227 -1.3425 44773.6094 -87.1227 -1.3425
ENERGY: 235000 1.1276 5.7550 3.6603 0.0000 -18515.6377 2704.7748 0.0000 0.0000 2229.8369 -13570.4832 242.9324 -15800.3201 -13563.9816 240.7708 144.5638 194.7053 45084.2620 3.2477 3.4336
ENERGY: 245000 3.2286 3.6565 2.9607 0.0000 -18299.3323 2528.1018 0.0000 0.0000 2225.5927 -13535.7920 242.4701 -15761.3847 -13530.2492 240.2843 -883.7594 -827.6794 45697.8604 4.2421 3.9174
ENERGY: 255000 2.3978 2.1464 1.1854 0.0000 -18560.5615 2766.8320 0.0000 0.0000 2198.4060 -13589.5940 239.5082 -15787.9999 -13581.3270 240.2291 394.0888 523.2417 45141.9148 6.4042 6.8985
ENERGY: 265000 1.9762 5.2890 2.2761 0.0000 -18412.6008 2576.3665 0.0000 0.0000 2166.9795 -13659.7136 236.0844 -15826.6931 -13656.0748 239.5448 -791.2801 -719.5086 45679.8569 0.7888 1.4954
ENERGY: 275000 0.4107 3.1601 1.9863 0.0000 -18425.2628 2655.7824 0.0000 0.0000 2206.4687 -13557.4546 240.3866 -15763.9233 -13551.2478 240.6821 -236.7428 -118.6596 45572.5892 6.4366 7.0087
TCL: Running 50000 steps at 270 kelvin.
TCL: Setting parameter langevinTemp to 270
TCL: Running for 50000 steps
ETITLE: TS BOND ANGLE DIHED IMPRP ELECT VDW BOUNDARY MISC KINETIC TOTAL TEMP POTENTIAL TOTAL3 TEMPAVG PRESSURE GPRESSURE VOLUME PRESSAVG GPRESSAVG
ENERGY: 275000 0.4107 3.1601 1.9863 0.0000 -18425.2628 2655.7824 0.0000 0.0000 2205.3391 -13558.5842 240.2635 -15763.9233 -13554.5506 240.2635 -198.9035 -119.0673 45572.5892 -198.9035 -119.0673
ENERGY: 285000 1.3720 3.0820 1.3454 0.0000 -17671.8838 2488.0823 0.0000 0.0000 2457.9583 -12720.0439 267.7854 -15178.0022 -12714.1600 271.3477 -60.8409 14.3312 46470.4838 3.9087 2.8757
ENERGY: 295000 0.9411 5.1518 2.6512 0.0000 -17562.0497 2446.0048 0.0000 0.0000 2502.7684 -12604.5323 272.6673 -15107.3007 -12601.0467 271.0024 -6.2586 63.8105 46483.1681 1.5084 2.0996
ENERGY: 305000 2.8626 2.3167 2.8833 0.0000 -17707.2630 2480.4846 0.0000 0.0000 2454.9750 -12763.7408 267.4604 -15218.7158 -12761.4483 268.2754 -5.3376 91.5050 45913.8164 5.5780 4.9989
ENERGY: 315000 4.7251 2.9673 4.4234 0.0000 -17730.7358 2599.7742 0.0000 0.0000 2437.2112 -12681.6346 265.5251 -15118.8458 -12677.6377 270.6483 843.4002 885.2739 45970.2762 -0.1008 0.1758
ENERGY: 325000 2.4122 3.1417 3.0615 0.0000 -17724.1070 2634.6296 0.0000 0.0000 2520.0884 -12560.7737 274.5543 -15080.8621 -12555.5429 268.6589 993.5627 1048.1648 46242.1312 2.3722 1.6078
TCL: Running 1000000 steps at 300 kelvin.
TCL: Setting parameter langevinTemp to 300
TCL: Running for 1000000 steps
ETITLE: TS BOND ANGLE DIHED IMPRP ELECT VDW BOUNDARY MISC KINETIC TOTAL TEMP POTENTIAL TOTAL3 TEMPAVG PRESSURE GPRESSURE VOLUME PRESSAVG GPRESSAVG
ENERGY: 325000 2.4122 3.1417 3.0615 0.0000 -17724.1070 2634.6296 0.0000 0.0000 2518.8660 -12561.9962 274.4211 -15080.8621 -12558.8187 274.4211 982.6244 1047.4398 46242.1312 982.6244 1047.4398
ENERGY: 525000 2.4751 2.3894 4.4424 0.0000 -16564.5293 2055.7953 0.0000 0.0000 2732.4873 -11766.9399 297.6943 -14499.4273 -11759.3197 300.2266 -1059.3070 -996.8761 47853.8459 0.0421 0.1047
ENERGY: 725000 2.8676 5.8126 2.6538 0.0000 -16769.2296 2284.3223 0.0000 0.0000 2774.2181 -11699.3552 302.2408 -14473.5733 -11695.8446 298.7351 320.7528 402.0245 47225.4389 -1.3605 -0.7739
ENERGY: 925000 4.7559 4.7679 1.9184 0.0000 -16678.3321 2225.1707 0.0000 0.0000 2753.9600 -11687.7593 300.0337 -14441.7192 -11685.3917 298.8749 -344.2031 -187.1724 48111.2259 -0.5038 -0.2193
ENERGY: 1125000 3.7021 3.1154 3.4175 0.0000 -17020.9484 2409.9289 0.0000 0.0000 2697.1645 -11903.6201 293.8460 -14600.7845 -11900.4841 302.7943 748.3182 818.8556 46889.0627 -0.2573 -0.0770
ENERGY: 1325000 1.1660 3.7737 2.5447 0.0000 -16903.4858 2259.2232 0.0000 0.0000 2738.3237 -11898.4545 298.3302 -14636.7782 -11892.9092 301.7588 -94.7120 -4.2891 47292.8588 9.9577 9.9216
TCL: Exiting due to exit command.
