Info: SIMULATION PARAMETERS:
Info: TIMESTEP               2
Info: NUMBER OF STEPS        0
Info: STEPS PER CYCLE        10
Info: PERIODIC CELL BASIS 1  41.123 0 0
Info: PERIODIC CELL BASIS 2  0 39.303 0
Info: PERIODIC CELL BASIS 3  0 0 39.797
Info: PERIODIC CELL CENTER   0 0 0
Info: WRAPPING WATERS AROUND PERIODIC BOUNDARIES ON OUTPUT.
Info: WRAPPING ALL CLUSTERS AROUND PERIODIC BOUNDARIES ON OUTPUT.
Info: FIRST LDB TIMESTEP     50
Info: LAST LDB TIMESTEP     -1
Info: HOM BACKGROUND SCALING 1
Info: PME BACKGROUND SCALING 1
Info: MIN ATOMS PER PATCH    40
Info: EMPTY PATCH LOAD       40 ATOMS
Info: INITIAL TEMPERATURE    300
Info: CENTER OF MASS MOVING INITIALLY? NO
Info: DIELECTRIC             1
Info: EXCLUDE                SCALED ONE-FOUR
Info: 1-4 ELECTROSTATICS SCALED BY 0.833333
Info: MODIFIED 1-4 VDW PARAMETERS WILL BE USED
Info: DCD FILENAME           mobley_9838013_min.dcd
Info: DCD FREQUENCY          5000
Info: DCD FIRST STEP         5000
Info: DCD FILE WILL CONTAIN UNIT CELL DATA
Info: XST FILENAME           mobley_9838013_min.xst
Info: XST FREQUENCY          5000
Info: NO VELOCITY DCD OUTPUT
Info: NO FORCE DCD OUTPUT
Info: OUTPUT FILENAME        mobley_9838013_min
Info: BINARY OUTPUT FILES WILL BE USED
Info: RESTART FILENAME       mobley_9838013_min.restart
Info: RESTART FREQUENCY      5000
Info: BINARY RESTART FILES WILL BE USED
Info: CUTOFF                 9
Info: PAIRLIST DISTANCE      11
Info: PAIRLIST SHRINK RATE   0.01
Info: PAIRLIST GROW RATE     0.01
Info: PAIRLIST TRIGGER       0.3
Info: PAIRLISTS PER CYCLE    2
Info: PAIRLISTS ENABLED
Info: MARGIN                 8
Info: HYDROGEN GROUP CUTOFF  2.5
Info: PATCH DIMENSION        21.5
Info: ENERGY OUTPUT STEPS    5000
Info: ENERGY EVALUATION STEPS    5000
Info: OUTPUT ENERGY PRECISION 4
Info: CROSSTERM ENERGY INCLUDED IN DIHEDRAL
Info: TIMING OUTPUT STEPS    50000
Info: PRESSURE OUTPUT STEPS  5000
Info: LANGEVIN DYNAMICS ACTIVE
Info: LANGEVIN TEMPERATURE   300
Info: LANGEVIN USING BBK INTEGRATOR
Info: LANGEVIN DAMPING COEFFICIENT IS 1 INVERSE PS
Info: LANGEVIN DYNAMICS APPLIED TO HYDROGENS
Info: LANGEVIN PISTON PRESSURE CONTROL ACTIVE
Info:        TARGET PRESSURE IS 1.01325 BAR
Info:     OSCILLATION PERIOD IS 50 FS
Info:             DECAY TIME IS 25 FS
Info:     PISTON TEMPERATURE IS 300 K
Info:       PRESSURE CONTROL IS GROUP-BASED
Info:    INITIAL STRAIN RATE IS 0 0 0
Info:       CELL FLUCTUATION IS ISOTROPIC
Info: PARTICLE MESH EWALD (PME) ACTIVE
Info: PME TOLERANCE               1e-06
Info: PME EWALD COEFFICIENT       0.348832
Info: PME INTERPOLATION ORDER     4
Info: PME GRID DIMENSIONS         44 40 40
Info: PME MAXIMUM GRID SPACING    1
Info: FULL ELECTROSTATIC EVALUATION FREQUENCY      2
Info: USING VERLET I (r-RESPA) MTS SCHEME.
Info: C1 SPLITTING OF LONG RANGE ELECTROSTATICS
Info: PLACING ATOMS IN PATCHES BY HYDROGEN GROUPS
Info: RIGID BONDS TO HYDROGEN : ALL
Info:         ERROR TOLERANCE : 1e-08
Info:          MAX ITERATIONS : 100
Info: RIGID WATER USING SETTLE ALGORITHM
Info: RANDOM NUMBER SEED     1741401730
Info: USE HYDROGEN BONDS?    NO
Info: Using AMBER format force field!
Info: AMBER PARM FILE        mobley_9838013.prmtop
Info: COORDINATE PDB         mobley_9838013.pdb
Info: Exclusions will be read from PARM file!
Info: SCNB (VDW SCALING)     2
Info: USING ARITHMETIC MEAN TO COMBINE L-J SIGMA PARAMETERS
Info: SUMMARY OF PARAMETERS:
Info: 6 BONDS
Info: 5 ANGLES
Info:   5 HARMONIC
Info:   0 COSINE-BASED
Info: 6 DIHEDRAL
Info: 0 IMPROPER
Info: 0 CROSSTERM
Info: 0 VDW
Info: 21 VDW_PAIRS
Info: 0 NBTHOLE_PAIRS
Info: STRUCTURE SUMMARY:
Info: 4620 ATOMS
Info: 4619 BONDS
Info: 31 ANGLES
Info: 39 DIHEDRALS
Info: 0 IMPROPERS
Info: 0 CROSSTERMS
Info: 4689 EXCLUSIONS
Info: 4614 RIGID BONDS
Info: 9246 DEGREES OF FREEDOM
Info: 1540 HYDROGEN GROUPS
Info: 4 ATOMS IN LARGEST HYDROGEN GROUP
Info: 1540 MIGRATION GROUPS
Info: 4 ATOMS IN LARGEST MIGRATION GROUP
Info: TOTAL MASS = 27724.7 amu
Info: TOTAL CHARGE = 3.72529e-08 e
Info: MASS DENSITY = 0.715756 g/cm^3
Info: ATOM DENSITY = 0.0718259 atoms/A^3
Info: ADDED 0 IMPLICIT EXCLUSIONS
Info: NONBONDED TABLE R-SQUARED SPACING: 0.0625
Info: NONBONDED TABLE SIZE: 705 POINTS
Info: REMOVING COM VELOCITY -0.197659 0.0928166 0.0510309
TCL: Minimizing for 2000 steps
ETITLE: TS BOND ANGLE DIHED IMPRP ELECT VDW BOUNDARY MISC KINETIC TOTAL TEMP POTENTIAL TOTAL3 TEMPAVG PRESSURE GPRESSURE VOLUME PRESSAVG GPRESSAVG
ENERGY: 0 0.0475 1.0611 0.0315 0.0000 -14294.6446 1629.6369 0.0000 0.0000 0.0000 -12663.8675 0.0000 -12663.8675 -12663.8675 0.0000 10952.0559 -15559.4799 64322.1905 10952.0559 -15559.4799
ENERGY: 400 2.3888 3.7944 0.2779 0.0000 -19423.8466 2848.9679 0.0000 0.0000 0.0000 -16568.4175 0.0000 -16568.4175 -16568.4175 0.0000 15724.8257 15876.2778 64322.1905 15724.8257 15876.2778
ENERGY: 800 0.5232 2.2166 0.2814 0.0000 -20454.5959 3324.2205 0.0000 0.0000 0.0000 -17127.3543 0.0000 -17127.3543 -17127.3543 0.0000 18078.3699 18205.1287 64322.1905 18078.3699 18205.1287
ENERGY: 1200 0.4979 1.0408 0.1452 0.0000 -20858.9711 3532.2982 0.0000 0.0000 0.0000 -17324.9891 0.0000 -17324.9891 -17324.9891 0.0000 19142.5418 19266.3067 64322.1905 19142.5418 19266.3067
ENERGY: 1600 0.3554 1.1659 0.1664 0.0000 -21032.4603 3612.4030 0.0000 0.0000 0.0000 -17418.3696 0.0000 -17418.3696 -17418.3696 0.0000 19564.7289 19676.8939 64322.1905 19564.7289 19676.8939
ENERGY: 2000 0.2336 1.1122 0.2893 0.0000 -21155.1504 3669.3763 0.0000 0.0000 0.0000 -17484.1391 0.0000 -17484.1391 -17484.1391 0.0000 19907.4462 20019.0901 64322.1905 19907.4462 20019.0901
TCL: Exiting due to exit command.
Info: NAMD 3.0.1 for Linux-x86_64-multicore
Info: Please visit http://www.ks.uiuc.edu/Research/namd/
Info: for updates, documentation, and support information.
Info: Please cite Phillips et al., J. Chem. Phys. 153:044130 (2020) doi:10.1063/5.0014475
Info: in all publications reporting results obtained with NAMD.
Info: Based on Charm++/Converse 80000 for multicore-linux-x86_64-gcc
Info: Built Mon Oct 14 11:11:06 CDT 2024 by dhardy on athine.ks.uiuc.edu
Info: 1 NAMD  3.0.1  Linux-x86_64-multicore  16    k018  z5358697
Info: Running on 16 processors, 1 nodes, 1 physical nodes.
Info: CPU topology information available.
Info: Charm++/Converse parallel runtime startup completed at 0.00536737 s
Info: 1043.45 MB of memory in use based on /proc/self/stat
Info: Configuration file is mobley_9838013_equil.namd
Info: Working in the current directory /srv/scratch/z5358697/prod_prep_12/9838013
TCL: Running 25000 steps at 30 kelvin.
TCL: Suspending until startup complete.
Info: SIMULATION PARAMETERS:
Info: TIMESTEP               2
Info: NUMBER OF STEPS        0
Info: STEPS PER CYCLE        10
Info: PERIODIC CELL BASIS 1  41.123 0 0
Info: PERIODIC CELL BASIS 2  0 39.303 0
Info: PERIODIC CELL BASIS 3  0 0 39.797
Info: PERIODIC CELL CENTER   0 0 0
Info: WRAPPING WATERS AROUND PERIODIC BOUNDARIES ON OUTPUT.
Info: WRAPPING ALL CLUSTERS AROUND PERIODIC BOUNDARIES ON OUTPUT.
Info: FIRST LDB TIMESTEP     50
Info: LAST LDB TIMESTEP     -1
Info: HOM BACKGROUND SCALING 1
Info: PME BACKGROUND SCALING 1
Info: MIN ATOMS PER PATCH    40
Info: EMPTY PATCH LOAD       40 ATOMS
Info: INITIAL TEMPERATURE    300
Info: CENTER OF MASS MOVING INITIALLY? NO
Info: DIELECTRIC             1
Info: EXCLUDE                SCALED ONE-FOUR
Info: 1-4 ELECTROSTATICS SCALED BY 0.833333
Info: MODIFIED 1-4 VDW PARAMETERS WILL BE USED
Info: DCD FILENAME           mobley_9838013_equil.dcd
Info: DCD FREQUENCY          5000
Info: DCD FIRST STEP         5000
Info: DCD FILE WILL CONTAIN UNIT CELL DATA
Info: XST FILENAME           mobley_9838013_equil.xst
Info: XST FREQUENCY          5000
Info: NO VELOCITY DCD OUTPUT
Info: NO FORCE DCD OUTPUT
Info: OUTPUT FILENAME        mobley_9838013_equil
Info: BINARY OUTPUT FILES WILL BE USED
Info: RESTART FILENAME       mobley_9838013_equil.restart
Info: RESTART FREQUENCY      5000
Info: BINARY RESTART FILES WILL BE USED
Info: CUTOFF                 9
Info: PAIRLIST DISTANCE      11
Info: PAIRLIST SHRINK RATE   0.01
Info: PAIRLIST GROW RATE     0.01
Info: PAIRLIST TRIGGER       0.3
Info: PAIRLISTS PER CYCLE    2
Info: PAIRLISTS ENABLED
Info: MARGIN                 8
Info: HYDROGEN GROUP CUTOFF  2.5
Info: PATCH DIMENSION        21.5
Info: ENERGY OUTPUT STEPS    5000
Info: ENERGY EVALUATION STEPS    5000
Info: OUTPUT ENERGY PRECISION 4
Info: CROSSTERM ENERGY INCLUDED IN DIHEDRAL
Info: TIMING OUTPUT STEPS    50000
Info: PRESSURE OUTPUT STEPS  5000
Info: LANGEVIN DYNAMICS ACTIVE
Info: LANGEVIN TEMPERATURE   30
Info: LANGEVIN USING BBK INTEGRATOR
Info: LANGEVIN DAMPING COEFFICIENT IS 1 INVERSE PS
Info: LANGEVIN DYNAMICS APPLIED TO HYDROGENS
Info: LANGEVIN PISTON PRESSURE CONTROL ACTIVE
Info:        TARGET PRESSURE IS 1.01325 BAR
Info:     OSCILLATION PERIOD IS 50 FS
Info:             DECAY TIME IS 25 FS
Info:     PISTON TEMPERATURE IS 300 K
Info:       PRESSURE CONTROL IS GROUP-BASED
Info:    INITIAL STRAIN RATE IS 0 0 0
Info:       CELL FLUCTUATION IS ISOTROPIC
Info: PARTICLE MESH EWALD (PME) ACTIVE
Info: PME TOLERANCE               1e-06
Info: PME EWALD COEFFICIENT       0.348832
Info: PME INTERPOLATION ORDER     4
Info: PME GRID DIMENSIONS         44 40 40
Info: PME MAXIMUM GRID SPACING    1
Info: FULL ELECTROSTATIC EVALUATION FREQUENCY      2
Info: USING VERLET I (r-RESPA) MTS SCHEME.
Info: C1 SPLITTING OF LONG RANGE ELECTROSTATICS
Info: PLACING ATOMS IN PATCHES BY HYDROGEN GROUPS
Info: RIGID BONDS TO HYDROGEN : ALL
Info:         ERROR TOLERANCE : 1e-08
Info:          MAX ITERATIONS : 100
Info: RIGID WATER USING SETTLE ALGORITHM
Info: RANDOM NUMBER SEED     1741401748
Info: USE HYDROGEN BONDS?    NO
Info: Using AMBER format force field!
Info: AMBER PARM FILE        mobley_9838013.prmtop
Info: COORDINATE PDB         mobley_9838013.pdb
Info: Exclusions will be read from PARM file!
Info: SCNB (VDW SCALING)     2
Info: USING ARITHMETIC MEAN TO COMBINE L-J SIGMA PARAMETERS
Info: BINARY COORDINATES     mobley_9838013_min.coor
Info: SUMMARY OF PARAMETERS:
Info: 6 BONDS
Info: 5 ANGLES
Info: 6 DIHEDRAL
Info: 0 IMPROPER
Info: 0 CROSSTERM
Info: 0 VDW
Info: 21 VDW_PAIRS
Info: 0 NBTHOLE_PAIRS
Info: STRUCTURE SUMMARY:
Info: 4620 ATOMS
Info: 4619 BONDS
Info: 31 ANGLES
Info: 39 DIHEDRALS
Info: 0 IMPROPERS
Info: 0 CROSSTERMS
Info: 4689 EXCLUSIONS
Info: 4614 RIGID BONDS
Info: 9246 DEGREES OF FREEDOM
Info: 1540 HYDROGEN GROUPS
Info: 4 ATOMS IN LARGEST HYDROGEN GROUP
Info: 1540 MIGRATION GROUPS
Info: 4 ATOMS IN LARGEST MIGRATION GROUP
Info: TOTAL MASS = 27724.7 amu
Info: TOTAL CHARGE = 3.72529e-08 e
Info: MASS DENSITY = 0.715756 g/cm^3
Info: ATOM DENSITY = 0.0718259 atoms/A^3
Info: ADDED 0 IMPLICIT EXCLUSIONS
Info: NONBONDED TABLE R-SQUARED SPACING: 0.0625
Info: NONBONDED TABLE SIZE: 705 POINTS
Info: REMOVING COM VELOCITY 0.0399413 0.0430001 -0.0819777
TCL: Running for 25000 steps
ETITLE: TS BOND ANGLE DIHED IMPRP ELECT VDW BOUNDARY MISC KINETIC TOTAL TEMP POTENTIAL TOTAL3 TEMPAVG PRESSURE GPRESSURE VOLUME PRESSAVG GPRESSAVG
ENERGY: 0 0.2336 1.1122 0.2893 0.0000 -21155.1504 3669.3763 0.0000 0.0000 2758.6470 -14725.4921 300.2843 -17484.1391 -14724.9379 300.2843 252.8408 292.2312 64322.1905 252.8408 292.2312
ENERGY: 5000 0.2405 1.6837 0.3090 0.0000 -22239.4557 3926.7739 0.0000 0.0000 280.7663 -18029.6825 30.5620 -18310.4488 -18029.0490 47.6416 478.3801 560.9243 44669.2195 3.9958 3.9410
ENERGY: 10000 0.4239 2.0102 0.2328 0.0000 -22214.4961 3862.7127 0.0000 0.0000 280.0796 -18069.0368 30.4872 -18349.1164 -18068.2698 30.2132 53.1106 118.1468 44656.6257 -2.5076 -2.6143
ENERGY: 15000 0.1771 1.6481 0.5243 0.0000 -22206.5583 3826.2545 0.0000 0.0000 281.4998 -18096.4544 30.6418 -18377.9543 -18095.9056 30.3265 -119.9979 -41.0082 44468.8732 2.9593 2.7793
ENERGY: 20000 0.2161 1.6753 0.4029 0.0000 -22249.1357 3881.9659 0.0000 0.0000 273.1099 -18091.7656 29.7286 -18364.8755 -18091.1232 30.0391 174.2735 256.6618 44392.3593 8.1571 8.0140
ENERGY: 25000 0.1602 1.7489 0.6153 0.0000 -22156.2224 3763.4413 0.0000 0.0000 279.4729 -18110.7838 30.4212 -18390.2567 -18109.9995 29.9969 -561.4746 -482.3077 44721.7135 6.2222 6.3037
TCL: Running 25000 steps at 60 kelvin.
TCL: Setting parameter langevinTemp to 60
TCL: Running for 25000 steps
ETITLE: TS BOND ANGLE DIHED IMPRP ELECT VDW BOUNDARY MISC KINETIC TOTAL TEMP POTENTIAL TOTAL3 TEMPAVG PRESSURE GPRESSURE VOLUME PRESSAVG GPRESSAVG
ENERGY: 25000 0.1602 1.7489 0.6153 0.0000 -22156.2224 3763.4413 0.0000 0.0000 279.3351 -18110.9216 30.4062 -18390.2567 -18110.3103 30.4062 -549.9562 -482.2292 44721.7135 -549.9562 -482.2292
ENERGY: 30000 0.4722 4.6013 0.6637 0.0000 -21951.7965 3794.3255 0.0000 0.0000 554.6046 -17597.1293 60.3698 -18151.7339 -17595.9383 56.8001 368.2498 436.8179 44454.4374 2.3024 2.0952
ENERGY: 35000 0.7912 2.0762 0.3651 0.0000 -21840.0728 3632.4550 0.0000 0.0000 558.2710 -17646.1143 60.7689 -18204.3853 -17645.0114 60.1007 -613.3471 -529.4773 44370.6138 4.7273 4.3813
ENERGY: 40000 0.6818 3.5044 0.2953 0.0000 -21939.7066 3701.8537 0.0000 0.0000 540.1671 -17693.2044 58.7983 -18233.3715 -17691.9021 60.4835 -257.8876 -200.6020 44200.3567 3.8974 3.8611
ENERGY: 45000 0.3236 2.1407 0.8209 0.0000 -21920.7635 3659.7002 0.0000 0.0000 551.4044 -17706.3737 60.0215 -18257.7782 -17705.2753 60.1707 -489.6103 -440.0292 44246.7398 6.2542 6.3467
ENERGY: 50000 0.8645 2.0806 0.3173 0.0000 -21960.4579 3677.9027 0.0000 0.0000 553.5890 -17725.7038 60.2593 -18279.2928 -17723.4698 60.5808 -536.8235 -476.5473 44339.1519 2.8165 2.8286
TCL: Running 25000 steps at 90 kelvin.
TCL: Setting parameter langevinTemp to 90
TCL: Running for 25000 steps
ETITLE: TS BOND ANGLE DIHED IMPRP ELECT VDW BOUNDARY MISC KINETIC TOTAL TEMP POTENTIAL TOTAL3 TEMPAVG PRESSURE GPRESSURE VOLUME PRESSAVG GPRESSAVG
ENERGY: 50000 0.8645 2.0806 0.3173 0.0000 -21960.4579 3677.9027 0.0000 0.0000 553.3209 -17725.9719 60.2301 -18279.2928 -17724.7746 60.2301 -531.0734 -476.3866 44339.1519 -531.0734 -476.3866
ENERGY: 55000 0.6295 3.3097 0.3226 0.0000 -21679.4766 3635.4862 0.0000 0.0000 848.8392 -17190.8894 92.3979 -18039.7286 -17187.4382 86.7898 -182.8574 -116.4518 44481.3353 7.2391 7.5692
ENERGY: 60000 0.4751 2.9514 0.6844 0.0000 -21812.7190 3751.2374 0.0000 0.0000 829.7194 -17227.6512 90.3166 -18057.3706 -17225.6899 90.0435 354.5350 435.5488 44371.1035 5.4251 5.7184
ENERGY: 65000 0.7877 3.0737 0.5755 0.0000 -21664.4676 3571.3713 0.0000 0.0000 827.7907 -17260.8687 90.1067 -18088.6594 -17257.9357 89.9679 -696.1220 -644.5939 44582.8305 4.7295 4.5042
ENERGY: 70000 1.0130 3.9650 0.3124 0.0000 -21797.7554 3709.0117 0.0000 0.0000 806.1385 -17277.3148 87.7498 -18083.4533 -17274.8100 89.8325 91.8818 108.3360 44478.4324 -2.8224 -2.6276
ENERGY: 75000 1.0012 3.0179 0.5001 0.0000 -21577.6207 3493.3252 0.0000 0.0000 841.8844 -17237.8919 91.6408 -18079.7762 -17235.9641 89.9504 -1194.8725 -1117.8204 44871.3252 3.7821 3.5849
TCL: Running 25000 steps at 120 kelvin.
TCL: Setting parameter langevinTemp to 120
TCL: Running for 25000 steps
ETITLE: TS BOND ANGLE DIHED IMPRP ELECT VDW BOUNDARY MISC KINETIC TOTAL TEMP POTENTIAL TOTAL3 TEMPAVG PRESSURE GPRESSURE VOLUME PRESSAVG GPRESSAVG
ENERGY: 75000 1.0012 3.0179 0.5001 0.0000 -21577.6207 3493.3252 0.0000 0.0000 841.4820 -17238.2943 91.5970 -18079.7762 -17236.6341 91.5970 -1169.6627 -1118.0976 44871.3252 -1169.6627 -1118.0976
ENERGY: 80000 0.9923 4.4624 0.5566 0.0000 -21290.6455 3498.2359 0.0000 0.0000 1107.1037 -16679.2946 120.5105 -17786.3983 -16676.4038 117.3150 -433.8570 -367.7862 45086.5483 2.6467 2.9933
ENERGY: 85000 0.2055 3.8787 0.6788 0.0000 -21586.0215 3797.5870 0.0000 0.0000 1113.5070 -16670.1645 121.2075 -17783.6715 -16667.9860 119.9214 1317.0495 1368.1201 44405.8857 3.7435 3.7156
ENERGY: 90000 0.9432 3.9049 0.4991 0.0000 -21346.3575 3504.6365 0.0000 0.0000 1110.1711 -16726.2028 120.8444 -17836.3739 -16723.1027 120.0317 -490.7296 -456.0585 44931.1741 8.2275 8.2744
ENERGY: 95000 0.3310 3.4904 0.4146 0.0000 -21556.6520 3670.5777 0.0000 0.0000 1111.0098 -16770.8284 120.9357 -17881.8383 -16768.4655 120.3651 384.5237 462.3709 44437.2161 5.4783 5.4855
ENERGY: 100000 0.3338 4.3981 0.5722 0.0000 -21450.6079 3577.4648 0.0000 0.0000 1088.3452 -16779.4938 118.4686 -17867.8390 -16777.8866 120.2903 -106.6870 -41.7601 44628.2639 1.7228 1.4816
TCL: Running 25000 steps at 150 kelvin.
TCL: Setting parameter langevinTemp to 150
TCL: Running for 25000 steps
ETITLE: TS BOND ANGLE DIHED IMPRP ELECT VDW BOUNDARY MISC KINETIC TOTAL TEMP POTENTIAL TOTAL3 TEMPAVG PRESSURE GPRESSURE VOLUME PRESSAVG GPRESSAVG
ENERGY: 100000 0.3338 4.3981 0.5722 0.0000 -21450.6079 3577.4648 0.0000 0.0000 1087.7936 -16780.0454 118.4085 -17867.8390 -16778.3815 118.4085 -86.4165 -41.9774 44628.2639 -86.4165 -41.9774
ENERGY: 105000 1.0084 5.5981 0.5640 0.0000 -20936.4625 3419.5007 0.0000 0.0000 1403.4695 -16106.3217 152.7705 -17509.7913 -16102.0144 146.9391 -66.6653 -40.0665 44893.6888 6.6157 7.3229
ENERGY: 110000 0.9013 6.0545 0.6794 0.0000 -20950.5839 3431.4862 0.0000 0.0000 1364.1733 -16147.2891 148.4930 -17511.4624 -16144.4395 150.8928 -28.7683 13.1681 44851.4615 2.8726 3.4014
ENERGY: 115000 0.2846 4.2074 0.4512 0.0000 -20859.5119 3321.9988 0.0000 0.0000 1350.2734 -16182.2964 146.9800 -17532.5698 -16178.3058 150.1140 -585.9855 -561.2633 44812.8473 -1.0077 -1.0726
ENERGY: 120000 0.3329 3.9456 0.5481 0.0000 -21105.7955 3556.7111 0.0000 0.0000 1419.1624 -16125.0954 154.4787 -17544.2578 -16122.5756 149.7304 753.5083 803.6873 44482.5274 -1.7619 -1.6717
ENERGY: 125000 2.5243 4.1199 0.8248 0.0000 -21038.5262 3455.9310 0.0000 0.0000 1400.8267 -16174.2994 152.4828 -17575.1261 -16170.6447 150.5494 -159.0067 -96.6570 44724.2151 7.7495 7.2532
TCL: Running 50000 steps at 180 kelvin.
TCL: Setting parameter langevinTemp to 180
TCL: Running for 50000 steps
ETITLE: TS BOND ANGLE DIHED IMPRP ELECT VDW BOUNDARY MISC KINETIC TOTAL TEMP POTENTIAL TOTAL3 TEMPAVG PRESSURE GPRESSURE VOLUME PRESSAVG GPRESSAVG
ENERGY: 125000 2.5243 4.1199 0.8248 0.0000 -21038.5262 3455.9310 0.0000 0.0000 1400.1445 -16174.9817 152.4086 -17575.1261 -16172.5296 152.4086 -153.3106 -96.1531 44724.2151 -153.3106 -96.1531
ENERGY: 135000 0.7897 6.0247 0.8287 0.0000 -20349.6095 3184.2765 0.0000 0.0000 1624.4783 -15533.2116 176.8277 -17157.6899 -15530.0154 179.6849 -527.6250 -472.9195 45138.0048 6.1844 5.9728
ENERGY: 145000 1.6809 4.6639 1.1748 0.0000 -20471.3852 3274.9133 0.0000 0.0000 1667.6173 -15521.3349 181.5235 -17188.9523 -15517.5444 180.1383 -239.3991 -157.0091 45244.7144 2.3658 2.6143
ENERGY: 155000 0.6593 5.7260 0.9160 0.0000 -20456.8844 3269.1354 0.0000 0.0000 1656.4710 -15523.9766 180.3102 -17180.4476 -15519.7548 181.1771 -120.5284 -96.9189 45117.4007 5.1171 5.5129
ENERGY: 165000 0.4466 5.2481 2.1176 0.0000 -20468.5492 3219.0784 0.0000 0.0000 1649.6912 -15591.9674 179.5722 -17241.6586 -15587.0757 179.9251 -672.7171 -595.0299 45341.9387 2.6430 2.4717
ENERGY: 175000 2.7687 4.0585 1.6272 0.0000 -20643.5181 3374.2496 0.0000 0.0000 1669.7466 -15591.0675 181.7553 -17260.8141 -15589.1405 179.3736 203.3234 215.9482 45166.2837 1.8517 1.5692
TCL: Running 50000 steps at 210 kelvin.
TCL: Setting parameter langevinTemp to 210
TCL: Running for 50000 steps
ETITLE: TS BOND ANGLE DIHED IMPRP ELECT VDW BOUNDARY MISC KINETIC TOTAL TEMP POTENTIAL TOTAL3 TEMPAVG PRESSURE GPRESSURE VOLUME PRESSAVG GPRESSAVG
ENERGY: 175000 2.7687 4.0585 1.6272 0.0000 -20643.5181 3374.2496 0.0000 0.0000 1668.9498 -15591.8644 181.6686 -17260.8141 -15588.7280 181.6686 157.4590 214.3715 45166.2837 157.4590 214.3715
ENERGY: 185000 0.9366 7.5186 1.4251 0.0000 -19531.1032 3002.8056 0.0000 0.0000 1923.3187 -14595.0985 209.3571 -16518.4173 -14591.9843 209.3273 -98.7935 -68.8885 45377.5668 5.8335 5.5734
ENERGY: 195000 0.3878 4.5666 0.4519 0.0000 -19467.9364 3014.0689 0.0000 0.0000 1944.4885 -14503.9727 211.6615 -16448.4612 -14500.6529 212.3175 359.4195 434.2468 44938.4003 6.7131 6.5653
ENERGY: 205000 2.0351 7.8445 2.5854 0.0000 -19400.5552 2965.9127 0.0000 0.0000 1961.6837 -14460.4939 213.5332 -16422.1776 -14456.0824 210.1692 54.2509 127.3468 45078.1421 6.2530 6.2570
ENERGY: 215000 2.4105 6.9253 0.7529 0.0000 -19565.9505 3055.5702 0.0000 0.0000 1900.6589 -14599.6326 206.8906 -16500.2915 -14596.1422 210.5946 188.2956 265.3751 45208.3115 -2.6533 -2.6424
ENERGY: 225000 0.9258 6.1842 1.2932 0.0000 -19508.1276 2979.5583 0.0000 0.0000 1940.2197 -14579.9463 211.1968 -16520.1661 -14575.1277 208.4760 -84.6483 -4.4546 45044.2901 7.5738 7.8578
TCL: Running 50000 steps at 240 kelvin.
TCL: Setting parameter langevinTemp to 240
TCL: Running for 50000 steps
ETITLE: TS BOND ANGLE DIHED IMPRP ELECT VDW BOUNDARY MISC KINETIC TOTAL TEMP POTENTIAL TOTAL3 TEMPAVG PRESSURE GPRESSURE VOLUME PRESSAVG GPRESSAVG
ENERGY: 225000 0.9258 6.1842 1.2932 0.0000 -19508.1276 2979.5583 0.0000 0.0000 1939.2208 -14580.9453 211.0881 -16520.1661 -14577.5430 211.0881 -77.8832 -5.4723 45044.2901 -77.8832 -5.4723
ENERGY: 235000 2.0936 10.6995 0.5192 0.0000 -18462.5732 2690.8796 0.0000 0.0000 2195.1245 -13563.2568 238.9437 -15758.3813 -13561.0731 241.0441 45.4055 97.1488 45536.6084 -2.6758 -2.2616
ENERGY: 245000 7.8470 6.9366 0.5767 0.0000 -18478.6993 2687.8628 0.0000 0.0000 2221.1436 -13554.3326 241.7760 -15775.4762 -13550.1074 239.0638 -280.0961 -183.3315 45919.6005 0.2912 -0.2465
ENERGY: 255000 0.5013 4.6511 1.3942 0.0000 -18449.1200 2639.6371 0.0000 0.0000 2237.5204 -13565.4159 243.5586 -15802.9363 -13562.0949 241.2429 -290.6357 -222.5048 45800.6852 -1.7279 -2.0225
ENERGY: 265000 1.9606 6.8328 1.3394 0.0000 -18542.4031 2698.7984 0.0000 0.0000 2179.3159 -13654.1559 237.2229 -15833.4718 -13649.8055 239.3476 -230.2262 -154.3111 45862.8022 5.1871 5.2589
ENERGY: 275000 0.3690 8.8092 1.5489 0.0000 -18410.9862 2568.6234 0.0000 0.0000 2190.8787 -13640.7569 238.4816 -15831.6357 -13637.2331 240.1913 -728.9927 -629.5042 45600.1746 9.0170 9.4405
TCL: Running 50000 steps at 270 kelvin.
TCL: Setting parameter langevinTemp to 270
TCL: Running for 50000 steps
ETITLE: TS BOND ANGLE DIHED IMPRP ELECT VDW BOUNDARY MISC KINETIC TOTAL TEMP POTENTIAL TOTAL3 TEMPAVG PRESSURE GPRESSURE VOLUME PRESSAVG GPRESSAVG
ENERGY: 275000 0.3690 8.8092 1.5489 0.0000 -18410.9862 2568.6234 0.0000 0.0000 2189.7480 -13641.8877 238.3585 -15831.6357 -13638.9153 238.3585 -710.6568 -630.1999 45600.1746 -710.6568 -630.1999
ENERGY: 285000 3.5231 7.6158 0.7041 0.0000 -17595.1583 2403.9392 0.0000 0.0000 2464.3386 -12715.0374 268.2482 -15179.3760 -12711.1190 270.5008 -371.4814 -324.2946 46410.8635 0.3731 0.1149
ENERGY: 295000 1.1461 6.0157 0.6219 0.0000 -17507.5242 2354.8729 0.0000 0.0000 2469.9764 -12674.8911 268.8619 -15144.8675 -12669.7270 269.2333 -502.6862 -398.2884 46080.3082 6.3765 6.2071
ENERGY: 305000 0.8226 8.0551 0.6904 0.0000 -17580.2819 2487.6610 0.0000 0.0000 2476.7594 -12606.2935 269.6003 -15083.0529 -12602.4155 270.2119 109.9350 213.2115 46777.5669 2.3179 2.0766
ENERGY: 315000 0.2928 9.3703 2.3411 0.0000 -17377.6934 2288.1664 0.0000 0.0000 2464.0226 -12613.5002 268.2138 -15077.5228 -12608.3687 270.9742 -583.7496 -487.2597 45892.2986 4.3860 4.1804
ENERGY: 325000 0.8209 8.6066 1.0317 0.0000 -17424.0706 2290.2188 0.0000 0.0000 2507.5743 -12615.8184 272.9545 -15123.3927 -12612.9340 270.5669 -699.0316 -652.2616 46188.5263 0.0145 0.2088
TCL: Running 1000000 steps at 300 kelvin.
TCL: Setting parameter langevinTemp to 300
TCL: Running for 1000000 steps
ETITLE: TS BOND ANGLE DIHED IMPRP ELECT VDW BOUNDARY MISC KINETIC TOTAL TEMP POTENTIAL TOTAL3 TEMPAVG PRESSURE GPRESSURE VOLUME PRESSAVG GPRESSAVG
ENERGY: 325000 0.8209 8.6066 1.0317 0.0000 -17424.0706 2290.2188 0.0000 0.0000 2506.3388 -12617.0539 272.8200 -15123.3927 -12612.9076 272.8200 -742.4294 -652.1606 46188.5263 -742.4294 -652.1606
ENERGY: 525000 3.8260 7.9547 0.8459 0.0000 -16747.5794 2199.4993 0.0000 0.0000 2808.4246 -11727.0289 305.7027 -14535.4535 -11720.3195 300.0248 -95.4012 22.9629 47027.0098 5.3207 5.5575
ENERGY: 725000 3.2911 9.2100 1.8207 0.0000 -16726.0354 2223.1024 0.0000 0.0000 2764.0464 -11724.5648 300.8720 -14488.6112 -11721.5614 299.6544 -400.6328 -267.0835 48242.6278 -3.2910 -3.7958
ENERGY: 925000 2.4977 5.0290 0.3577 0.0000 -16887.8635 2302.0755 0.0000 0.0000 2787.8056 -11790.0980 303.4583 -14577.9036 -11784.4942 301.7922 61.1075 143.2488 47698.2400 3.3171 3.3490
ENERGY: 1125000 4.8566 13.0573 2.8411 0.0000 -16830.9504 2267.5451 0.0000 0.0000 2753.1556 -11789.4948 299.6866 -14542.6504 -11783.1898 300.0095 -74.7079 6.8570 47477.8111 4.5456 4.3282
ENERGY: 1325000 1.4606 7.7331 0.9484 0.0000 -16959.6658 2372.7023 0.0000 0.0000 2676.6760 -11900.1453 291.3616 -14576.8213 -11895.6643 301.2946 173.6403 259.8911 48323.3280 2.8792 2.4980
TCL: Exiting due to exit command.
