Info: SIMULATION PARAMETERS:
Info: TIMESTEP               1
Info: NUMBER OF STEPS        0
Info: STEPS PER CYCLE        10
Info: PERIODIC CELL BASIS 1  30 0 0
Info: PERIODIC CELL BASIS 2  0 30 0
Info: PERIODIC CELL BASIS 3  0 0 30
Info: PERIODIC CELL CENTER   0 0 0
Info: WRAPPING ALL CLUSTERS AROUND PERIODIC BOUNDARIES ON OUTPUT.
Info: FIRST LDB TIMESTEP     50
Info: LAST LDB TIMESTEP     -1
Info: HOM BACKGROUND SCALING 1
Info: MIN ATOMS PER PATCH    40
Info: EMPTY PATCH LOAD       40 ATOMS
Info: INITIAL TEMPERATURE    298
Info: CENTER OF MASS MOVING INITIALLY? NO
Info: DIELECTRIC             1
Info: EXCLUDE                SCALED ONE-FOUR
Info: 1-4 ELECTROSTATICS SCALED BY 1
Info: MODIFIED 1-4 VDW PARAMETERS WILL BE USED
Info: DCD FILENAME           output.dcd
Info: DCD FREQUENCY          10000
Info: DCD FIRST STEP         10000
Info: DCD FILE WILL CONTAIN UNIT CELL DATA
Info: NO EXTENDED SYSTEM TRAJECTORY OUTPUT
Info: NO VELOCITY DCD OUTPUT
Info: NO FORCE DCD OUTPUT
Info: OUTPUT FILENAME        output
Info: BINARY OUTPUT FILES WILL BE USED
Info: NO RESTART FILE
Info: SWITCHING ACTIVE
Info: SWITCHING ON           10
Info: SWITCHING OFF          12
Info: PAIRLIST DISTANCE      14
Info: PAIRLIST SHRINK RATE   0.01
Info: PAIRLIST GROW RATE     0.01
Info: PAIRLIST TRIGGER       0.3
Info: PAIRLISTS PER CYCLE    2
Info: PAIRLISTS ENABLED
Info: MARGIN                 0.495
Info: HYDROGEN GROUP CUTOFF  2.5
Info: PATCH DIMENSION        16.995
Info: ENERGY OUTPUT STEPS    10000
Info: ENERGY EVALUATION STEPS    10000
Info: OUTPUT ENERGY PRECISION 4
Info: CROSSTERM ENERGY INCLUDED IN DIHEDRAL
Info: TIMING OUTPUT STEPS    10000
Info: LANGEVIN DYNAMICS ACTIVE
Info: LANGEVIN TEMPERATURE   298
Info: LANGEVIN USING BBK INTEGRATOR
Info: LANGEVIN DAMPING COEFFICIENT IS 1 INVERSE PS
Info: LANGEVIN DYNAMICS NOT APPLIED TO HYDROGENS
Info: LANGEVIN PISTON PRESSURE CONTROL ACTIVE
Info:        TARGET PRESSURE IS 1.01325 BAR
Info:     OSCILLATION PERIOD IS 100 FS
Info:             DECAY TIME IS 50 FS
Info:     PISTON TEMPERATURE IS 298 K
Info:       PRESSURE CONTROL IS GROUP-BASED
Info:    INITIAL STRAIN RATE IS 0 0 0
Info:       CELL FLUCTUATION IS ISOTROPIC
Info: MULTILEVEL SUMMATION METHOD (MSM) FOR ELECTROSTATICS ACTIVE
Info: MSM WITH C1 CUBIC INTERPOLATION AND C2 TAYLOR SPLITTING
Info: FULL ELECTROSTATIC EVALUATION FREQUENCY      1
Info: USING VERLET I (r-RESPA) MTS SCHEME.
Info: C1 SPLITTING OF LONG RANGE ELECTROSTATICS
Info: PLACING ATOMS IN PATCHES BY HYDROGEN GROUPS
Info: RIGID BONDS TO HYDROGEN : ALL
Info:         ERROR TOLERANCE : 1e-08
Info:          MAX ITERATIONS : 100
Info: RIGID WATER USING SETTLE ALGORITHM
Info: RANDOM NUMBER SEED     1740294185
Info: USE HYDROGEN BONDS?    NO
Info: COORDINATE PDB         ionized.pdb
Info: STRUCTURE FILE         ionized.psf
Info: PARAMETER file: CHARMM format!
Info: PARAMETERS             par_all27_prot_lipid.inp
Info: USING ARITHMETIC MEAN TO COMBINE L-J SIGMA PARAMETERS
Info: SUMMARY OF PARAMETERS:
Info: 180 BONDS
Info: 447 ANGLES
Info: 566 DIHEDRAL
Info: 46 IMPROPER
Info: 6 CROSSTERM
Info: 119 VDW
Info: 0 VDW_PAIRS
Info: 0 NBTHOLE_PAIRS
Info: STRUCTURE SUMMARY:
Info: 2478 ATOMS
Info: 1652 BONDS
Info: 826 ANGLES
Info: 0 DIHEDRALS
Info: 0 IMPROPERS
Info: 0 CROSSTERMS
Info: 0 EXCLUSIONS
Info: 2478 RIGID BONDS
Info: 4956 DEGREES OF FREEDOM
Info: 826 HYDROGEN GROUPS
Info: 3 ATOMS IN LARGEST HYDROGEN GROUP
Info: 826 MIGRATION GROUPS
Info: 3 ATOMS IN LARGEST MIGRATION GROUP
Info: TOTAL MASS = 14880.7 amu
Info: TOTAL CHARGE = 0 e
Info: MASS DENSITY = 0.915207 g/cm^3
Info: ATOM DENSITY = 0.0917778 atoms/A^3
Info: ADDED 2478 IMPLICIT EXCLUSIONS
Info: NONBONDED TABLE R-SQUARED SPACING: 0.0625
Info: NONBONDED TABLE SIZE: 769 POINTS
Info: REMOVING COM VELOCITY -0.161574 0.195356 -0.0112168
Info: MSM using C1 cubic interpolation
Info: MSM using C2 Taylor splitting function
Info: MSM block size decomposition along X is 8 grid points
Info: MSM block size decomposition along Y is 8 grid points
Info: MSM block size decomposition along Z is 8 grid points
Info: MSM grid spacing along X is 2.5 A
Info: MSM grid spacing along Y is 2.5 A
Info: MSM grid spacing along Z is 2.5 A
Info: MSM using 3 levels
Info:     level 0:  [0..11] x [0..11] x [0..11]
Info:     level 1:  [0..5] x [0..5] x [0..5]
Info:     level 2:  [0..2] x [0..2] x [0..2]
Info: MSM finished calculating stencils
Info: MSM finished creating map for grid levels
Info: MSM finished creating map for patches
Info: MSM has 9 interpolation / anterpolation objects (one per patch)
Info: MSM grid level 0 decomposed into 8 blocks ( 2 x 2 x 2 )
Info: MSM grid level 1 decomposed into 1 block ( 1 x 1 x 1 )
Info: MSM grid level 2 decomposed into 1 block ( 1 x 1 x 1 )
Info: MSM grid cutoff calculation decomposed into 783 work objects
TCL: Minimizing for 1000 steps
ETITLE: TS BOND ANGLE DIHED IMPRP ELECT VDW BOUNDARY MISC KINETIC TOTAL TEMP POTENTIAL TOTAL3 TEMPAVG PRESSURE GPRESSURE VOLUME PRESSAVG GPRESSAVG
ENERGY: 0 0.0000 0.0000 0.0000 0.0000 -7442.5560 6358.5112 0.0000 0.0000 0.0000 -1084.0447 0.0000 -1084.0447 -1084.0447 0.0000 75224.8790 46167.8622 27000.0000 75224.8790 46167.8622
ENERGY: 200 0.0000 0.0000 0.0000 0.0000 -10584.9380 1093.9388 0.0000 0.0000 0.0000 -9490.9992 0.0000 -9490.9992 -9490.9992 0.0000 18749.8532 18689.9518 27000.0000 18749.8532 18689.9518
ENERGY: 400 0.0000 0.0000 0.0000 0.0000 -10972.6303 1262.8077 0.0000 0.0000 0.0000 -9709.8226 0.0000 -9709.8226 -9709.8226 0.0000 20694.8536 20614.4540 27000.0000 20694.8536 20614.4540
ENERGY: 600 0.0000 0.0000 0.0000 0.0000 -11101.2384 1298.8145 0.0000 0.0000 0.0000 -9802.4240 0.0000 -9802.4240 -9802.4240 0.0000 21134.4750 21047.2788 27000.0000 21134.4750 21047.2788
ENERGY: 800 0.0000 0.0000 0.0000 0.0000 -11182.6779 1321.5651 0.0000 0.0000 0.0000 -9861.1128 0.0000 -9861.1128 -9861.1128 0.0000 21389.6033 21302.2354 27000.0000 21389.6033 21302.2354
ENERGY: 1000 0.0000 0.0000 0.0000 0.0000 -11232.3958 1343.5401 0.0000 0.0000 0.0000 -9888.8557 0.0000 -9888.8557 -9888.8557 0.0000 21617.4110 21533.5505 27000.0000 21617.4110 21533.5505
TCL: Running for 2000000 steps
ETITLE: TS BOND ANGLE DIHED IMPRP ELECT VDW BOUNDARY MISC KINETIC TOTAL TEMP POTENTIAL TOTAL3 TEMPAVG PRESSURE GPRESSURE VOLUME PRESSAVG GPRESSAVG
ENERGY: 10000 0.0000 0.0000 0.0000 0.0000 -9162.1342 959.0907 0.0000 0.0000 1415.4533 -6787.5902 287.4449 -8203.0435 -6786.6420 249.3147 671.5601 661.9464 24272.7166 3.8410 3.7922
ENERGY: 410000 0.0000 0.0000 0.0000 0.0000 -8982.8818 869.6225 0.0000 0.0000 1418.6920 -6694.5673 288.1026 -8113.2593 -6694.3476 298.9491 -65.2962 -76.0436 24550.8314 -1.6843 -1.7079
ENERGY: 810000 0.0000 0.0000 0.0000 0.0000 -9087.2351 923.5127 0.0000 0.0000 1505.3086 -6658.4139 305.6924 -8163.7225 -6657.3179 298.9744 577.9690 577.0620 24183.6946 0.6903 0.6856
ENERGY: 1200000 0.0000 0.0000 0.0000 0.0000 -8930.7798 866.6133 0.0000 0.0000 1479.9208 -6584.2457 300.5367 -8064.1665 -6583.2486 303.1533 129.1703 135.4533 24411.0349 13.6120 13.6509
ENERGY: 1600000 0.0000 0.0000 0.0000 0.0000 -9022.6473 869.6754 0.0000 0.0000 1462.9219 -6690.0500 297.0847 -8152.9719 -6689.0420 296.6364 -174.3929 -169.9017 24543.1894 2.3632 2.2650
ENERGY: 2000000 0.0000 0.0000 0.0000 0.0000 -9027.4997 902.2375 0.0000 0.0000 1498.2737 -6626.9885 304.2638 -8125.2622 -6626.7277 297.1170 316.7340 326.7042 24419.1906 2.9435 2.8620
