Info: SIMULATION PARAMETERS:
Info: TIMESTEP               2
Info: NUMBER OF STEPS        0
Info: STEPS PER CYCLE        10
Info: PERIODIC CELL BASIS 1  39.546 0 0
Info: PERIODIC CELL BASIS 2  0 37.796 0
Info: PERIODIC CELL BASIS 3  0 0 40.136
Info: PERIODIC CELL CENTER   0 0 0
Info: WRAPPING WATERS AROUND PERIODIC BOUNDARIES ON OUTPUT.
Info: WRAPPING ALL CLUSTERS AROUND PERIODIC BOUNDARIES ON OUTPUT.
Info: FIRST LDB TIMESTEP     50
Info: LAST LDB TIMESTEP     -1
Info: HOM BACKGROUND SCALING 1
Info: PME BACKGROUND SCALING 1
Info: MIN ATOMS PER PATCH    40
Info: EMPTY PATCH LOAD       40 ATOMS
Info: INITIAL TEMPERATURE    300
Info: CENTER OF MASS MOVING INITIALLY? NO
Info: DIELECTRIC             1
Info: EXCLUDE                SCALED ONE-FOUR
Info: 1-4 ELECTROSTATICS SCALED BY 0.833333
Info: MODIFIED 1-4 VDW PARAMETERS WILL BE USED
Info: DCD FILENAME           mobley_9913368_min.dcd
Info: DCD FREQUENCY          5000
Info: DCD FIRST STEP         5000
Info: DCD FILE WILL CONTAIN UNIT CELL DATA
Info: XST FILENAME           mobley_9913368_min.xst
Info: XST FREQUENCY          5000
Info: NO VELOCITY DCD OUTPUT
Info: NO FORCE DCD OUTPUT
Info: OUTPUT FILENAME        mobley_9913368_min
Info: BINARY OUTPUT FILES WILL BE USED
Info: RESTART FILENAME       mobley_9913368_min.restart
Info: RESTART FREQUENCY      5000
Info: BINARY RESTART FILES WILL BE USED
Info: CUTOFF                 9
Info: PAIRLIST DISTANCE      11
Info: PAIRLIST SHRINK RATE   0.01
Info: PAIRLIST GROW RATE     0.01
Info: PAIRLIST TRIGGER       0.3
Info: PAIRLISTS PER CYCLE    2
Info: PAIRLISTS ENABLED
Info: MARGIN                 8
Info: HYDROGEN GROUP CUTOFF  2.5
Info: PATCH DIMENSION        21.5
Info: ENERGY OUTPUT STEPS    5000
Info: ENERGY EVALUATION STEPS    5000
Info: OUTPUT ENERGY PRECISION 4
Info: CROSSTERM ENERGY INCLUDED IN DIHEDRAL
Info: TIMING OUTPUT STEPS    50000
Info: PRESSURE OUTPUT STEPS  5000
Info: LANGEVIN DYNAMICS ACTIVE
Info: LANGEVIN TEMPERATURE   300
Info: LANGEVIN USING BBK INTEGRATOR
Info: LANGEVIN DAMPING COEFFICIENT IS 1 INVERSE PS
Info: LANGEVIN DYNAMICS APPLIED TO HYDROGENS
Info: LANGEVIN PISTON PRESSURE CONTROL ACTIVE
Info:        TARGET PRESSURE IS 1.01325 BAR
Info:     OSCILLATION PERIOD IS 50 FS
Info:             DECAY TIME IS 25 FS
Info:     PISTON TEMPERATURE IS 300 K
Info:       PRESSURE CONTROL IS GROUP-BASED
Info:    INITIAL STRAIN RATE IS 0 0 0
Info:       CELL FLUCTUATION IS ISOTROPIC
Info: PARTICLE MESH EWALD (PME) ACTIVE
Info: PME TOLERANCE               1e-06
Info: PME EWALD COEFFICIENT       0.348832
Info: PME INTERPOLATION ORDER     4
Info: PME GRID DIMENSIONS         40 40 44
Info: PME MAXIMUM GRID SPACING    1
Info: FULL ELECTROSTATIC EVALUATION FREQUENCY      2
Info: USING VERLET I (r-RESPA) MTS SCHEME.
Info: C1 SPLITTING OF LONG RANGE ELECTROSTATICS
Info: PLACING ATOMS IN PATCHES BY HYDROGEN GROUPS
Info: RIGID BONDS TO HYDROGEN : ALL
Info:         ERROR TOLERANCE : 1e-08
Info:          MAX ITERATIONS : 100
Info: RIGID WATER USING SETTLE ALGORITHM
Info: RANDOM NUMBER SEED     1741402966
Info: USE HYDROGEN BONDS?    NO
Info: Using AMBER format force field!
Info: AMBER PARM FILE        mobley_9913368.prmtop
Info: COORDINATE PDB         mobley_9913368.pdb
Info: Exclusions will be read from PARM file!
Info: SCNB (VDW SCALING)     2
Info: USING ARITHMETIC MEAN TO COMBINE L-J SIGMA PARAMETERS
Info: SUMMARY OF PARAMETERS:
Info: 5 BONDS
Info: 3 ANGLES
Info:   3 HARMONIC
Info:   0 COSINE-BASED
Info: 1 DIHEDRAL
Info: 0 IMPROPER
Info: 0 CROSSTERM
Info: 0 VDW
Info: 15 VDW_PAIRS
Info: 0 NBTHOLE_PAIRS
Info: STRUCTURE SUMMARY:
Info: 4248 ATOMS
Info: 4247 BONDS
Info: 6 ANGLES
Info: 4 DIHEDRALS
Info: 0 IMPROPERS
Info: 0 CROSSTERMS
Info: 4257 EXCLUSIONS
Info: 4244 RIGID BONDS
Info: 8500 DEGREES OF FREEDOM
Info: 1418 HYDROGEN GROUPS
Info: 3 ATOMS IN LARGEST HYDROGEN GROUP
Info: 1418 MIGRATION GROUPS
Info: 3 ATOMS IN LARGEST MIGRATION GROUP
Info: TOTAL MASS = 25571.6 amu
Info: TOTAL CHARGE = 0.000100002 e
Info: MASS DENSITY = 0.707838 g/cm^3
Info: ATOM DENSITY = 0.0708112 atoms/A^3
Info: ADDED 0 IMPLICIT EXCLUSIONS
Info: NONBONDED TABLE R-SQUARED SPACING: 0.0625
Info: NONBONDED TABLE SIZE: 705 POINTS
Info: REMOVING COM VELOCITY 0.147091 -0.0914505 0.00415997
TCL: Minimizing for 2000 steps
ETITLE: TS BOND ANGLE DIHED IMPRP ELECT VDW BOUNDARY MISC KINETIC TOTAL TEMP POTENTIAL TOTAL3 TEMPAVG PRESSURE GPRESSURE VOLUME PRESSAVG GPRESSAVG
ENERGY: 0 0.3676 0.1376 0.0001 0.0000 -13176.5363 1556.1317 0.0000 0.0000 0.0000 -11619.8992 0.0000 -11619.8992 -11619.8992 0.0000 11096.8879 -15212.5692 59990.5012 11096.8879 -15212.5692
ENERGY: 400 2.0700 0.6077 0.1914 0.0000 -17906.8711 2706.7756 0.0000 0.0000 0.0000 -15197.2264 0.0000 -15197.2264 -15197.2264 0.0000 15984.1089 16090.1867 59990.5012 15984.1089 16090.1867
ENERGY: 800 22.3333 3.8731 0.3707 0.0000 -18707.1626 3028.8848 0.0000 0.0000 0.0000 -15651.7007 0.0000 -15651.7007 -15651.7007 0.0000 17610.8212 17723.3358 59990.5012 17610.8212 17723.3358
ENERGY: 1200 0.2672 0.3390 0.0241 0.0000 -19197.0250 3247.5867 0.0000 0.0000 0.0000 -15948.8081 0.0000 -15948.8081 -15948.8081 0.0000 18866.6972 18969.1868 59990.5012 18866.6972 18969.1868
ENERGY: 1600 0.0913 0.0700 0.0064 0.0000 -19391.4103 3316.4013 0.0000 0.0000 0.0000 -16074.8413 0.0000 -16074.8413 -16074.8413 0.0000 19219.3067 19299.9486 59990.5012 19219.3067 19299.9486
ENERGY: 2000 0.3009 0.0462 0.0131 0.0000 -19548.8653 3395.1780 0.0000 0.0000 0.0000 -16153.3272 0.0000 -16153.3272 -16153.3272 0.0000 19710.2032 19795.5030 59990.5012 19710.2032 19795.5030
TCL: Exiting due to exit command.
Info: NAMD 3.0.1 for Linux-x86_64-multicore
Info: Please visit http://www.ks.uiuc.edu/Research/namd/
Info: for updates, documentation, and support information.
Info: Please cite Phillips et al., J. Chem. Phys. 153:044130 (2020) doi:10.1063/5.0014475
Info: in all publications reporting results obtained with NAMD.
Info: Based on Charm++/Converse 80000 for multicore-linux-x86_64-gcc
Info: Built Mon Oct 14 11:11:06 CDT 2024 by dhardy on athine.ks.uiuc.edu
Info: 1 NAMD  3.0.1  Linux-x86_64-multicore  16    k016  z5358697
Info: Running on 16 processors, 1 nodes, 1 physical nodes.
Info: CPU topology information available.
Info: Charm++/Converse parallel runtime startup completed at 0.00976093 s
Info: 1043.45 MB of memory in use based on /proc/self/stat
Info: Configuration file is mobley_9913368_equil.namd
Info: Working in the current directory /srv/scratch/z5358697/prod_prep_12/9913368
TCL: Running 25000 steps at 30 kelvin.
TCL: Suspending until startup complete.
Info: SIMULATION PARAMETERS:
Info: TIMESTEP               2
Info: NUMBER OF STEPS        0
Info: STEPS PER CYCLE        10
Info: PERIODIC CELL BASIS 1  39.546 0 0
Info: PERIODIC CELL BASIS 2  0 37.796 0
Info: PERIODIC CELL BASIS 3  0 0 40.136
Info: PERIODIC CELL CENTER   0 0 0
Info: WRAPPING WATERS AROUND PERIODIC BOUNDARIES ON OUTPUT.
Info: WRAPPING ALL CLUSTERS AROUND PERIODIC BOUNDARIES ON OUTPUT.
Info: FIRST LDB TIMESTEP     50
Info: LAST LDB TIMESTEP     -1
Info: HOM BACKGROUND SCALING 1
Info: PME BACKGROUND SCALING 1
Info: MIN ATOMS PER PATCH    40
Info: EMPTY PATCH LOAD       40 ATOMS
Info: INITIAL TEMPERATURE    300
Info: CENTER OF MASS MOVING INITIALLY? NO
Info: DIELECTRIC             1
Info: EXCLUDE                SCALED ONE-FOUR
Info: 1-4 ELECTROSTATICS SCALED BY 0.833333
Info: MODIFIED 1-4 VDW PARAMETERS WILL BE USED
Info: DCD FILENAME           mobley_9913368_equil.dcd
Info: DCD FREQUENCY          5000
Info: DCD FIRST STEP         5000
Info: DCD FILE WILL CONTAIN UNIT CELL DATA
Info: XST FILENAME           mobley_9913368_equil.xst
Info: XST FREQUENCY          5000
Info: NO VELOCITY DCD OUTPUT
Info: NO FORCE DCD OUTPUT
Info: OUTPUT FILENAME        mobley_9913368_equil
Info: BINARY OUTPUT FILES WILL BE USED
Info: RESTART FILENAME       mobley_9913368_equil.restart
Info: RESTART FREQUENCY      5000
Info: BINARY RESTART FILES WILL BE USED
Info: CUTOFF                 9
Info: PAIRLIST DISTANCE      11
Info: PAIRLIST SHRINK RATE   0.01
Info: PAIRLIST GROW RATE     0.01
Info: PAIRLIST TRIGGER       0.3
Info: PAIRLISTS PER CYCLE    2
Info: PAIRLISTS ENABLED
Info: MARGIN                 8
Info: HYDROGEN GROUP CUTOFF  2.5
Info: PATCH DIMENSION        21.5
Info: ENERGY OUTPUT STEPS    5000
Info: ENERGY EVALUATION STEPS    5000
Info: OUTPUT ENERGY PRECISION 4
Info: CROSSTERM ENERGY INCLUDED IN DIHEDRAL
Info: TIMING OUTPUT STEPS    50000
Info: PRESSURE OUTPUT STEPS  5000
Info: LANGEVIN DYNAMICS ACTIVE
Info: LANGEVIN TEMPERATURE   30
Info: LANGEVIN USING BBK INTEGRATOR
Info: LANGEVIN DAMPING COEFFICIENT IS 1 INVERSE PS
Info: LANGEVIN DYNAMICS APPLIED TO HYDROGENS
Info: LANGEVIN PISTON PRESSURE CONTROL ACTIVE
Info:        TARGET PRESSURE IS 1.01325 BAR
Info:     OSCILLATION PERIOD IS 50 FS
Info:             DECAY TIME IS 25 FS
Info:     PISTON TEMPERATURE IS 300 K
Info:       PRESSURE CONTROL IS GROUP-BASED
Info:    INITIAL STRAIN RATE IS 0 0 0
Info:       CELL FLUCTUATION IS ISOTROPIC
Info: PARTICLE MESH EWALD (PME) ACTIVE
Info: PME TOLERANCE               1e-06
Info: PME EWALD COEFFICIENT       0.348832
Info: PME INTERPOLATION ORDER     4
Info: PME GRID DIMENSIONS         40 40 44
Info: PME MAXIMUM GRID SPACING    1
Info: FULL ELECTROSTATIC EVALUATION FREQUENCY      2
Info: USING VERLET I (r-RESPA) MTS SCHEME.
Info: C1 SPLITTING OF LONG RANGE ELECTROSTATICS
Info: PLACING ATOMS IN PATCHES BY HYDROGEN GROUPS
Info: RIGID BONDS TO HYDROGEN : ALL
Info:         ERROR TOLERANCE : 1e-08
Info:          MAX ITERATIONS : 100
Info: RIGID WATER USING SETTLE ALGORITHM
Info: RANDOM NUMBER SEED     1741402979
Info: USE HYDROGEN BONDS?    NO
Info: Using AMBER format force field!
Info: AMBER PARM FILE        mobley_9913368.prmtop
Info: COORDINATE PDB         mobley_9913368.pdb
Info: Exclusions will be read from PARM file!
Info: SCNB (VDW SCALING)     2
Info: USING ARITHMETIC MEAN TO COMBINE L-J SIGMA PARAMETERS
Info: BINARY COORDINATES     mobley_9913368_min.coor
Info: SUMMARY OF PARAMETERS:
Info: 5 BONDS
Info: 3 ANGLES
Info:   3 HARMONIC
Info:   0 COSINE-BASED
Info: 1 DIHEDRAL
Info: 0 IMPROPER
Info: 0 CROSSTERM
Info: 0 VDW
Info: 15 VDW_PAIRS
Info: 0 NBTHOLE_PAIRS
Info: STRUCTURE SUMMARY:
Info: 4248 ATOMS
Info: 4247 BONDS
Info: 6 ANGLES
Info: 4 DIHEDRALS
Info: 0 IMPROPERS
Info: 0 CROSSTERMS
Info: 4257 EXCLUSIONS
Info: 4244 RIGID BONDS
Info: 8500 DEGREES OF FREEDOM
Info: 1418 HYDROGEN GROUPS
Info: 3 ATOMS IN LARGEST HYDROGEN GROUP
Info: 1418 MIGRATION GROUPS
Info: 3 ATOMS IN LARGEST MIGRATION GROUP
Info: TOTAL MASS = 25571.6 amu
Info: TOTAL CHARGE = 0.000100002 e
Info: MASS DENSITY = 0.707838 g/cm^3
Info: ATOM DENSITY = 0.0708112 atoms/A^3
Info: ADDED 0 IMPLICIT EXCLUSIONS
Info: NONBONDED TABLE R-SQUARED SPACING: 0.0625
Info: NONBONDED TABLE SIZE: 705 POINTS
Info: REMOVING COM VELOCITY 0.0168913 0.151077 -0.0673016
TCL: Running for 25000 steps
ETITLE: TS BOND ANGLE DIHED IMPRP ELECT VDW BOUNDARY MISC KINETIC TOTAL TEMP POTENTIAL TOTAL3 TEMPAVG PRESSURE GPRESSURE VOLUME PRESSAVG GPRESSAVG
ENERGY: 0 0.3009 0.0462 0.0131 0.0000 -19548.8653 3395.1780 0.0000 0.0000 2551.8116 -13601.5156 302.1482 -16153.3272 -13600.9824 302.1482 214.1203 250.3283 59990.5012 214.1203 250.3283
ENERGY: 5000 0.2057 0.1540 0.0983 0.0000 -20373.6321 3487.5311 0.0000 0.0000 260.5032 -16625.1398 30.8450 -16885.6430 -16624.3121 47.7906 -534.8825 -469.3985 41944.0550 0.6630 0.5725
ENERGY: 10000 0.1112 0.2067 0.0534 0.0000 -20428.4310 3515.5800 0.0000 0.0000 259.0314 -16653.4482 30.6707 -16912.4796 -16652.9660 30.4735 -410.5108 -345.0393 41884.5773 5.2937 5.1686
ENERGY: 15000 0.0508 0.0955 0.0877 0.0000 -20543.0469 3619.3877 0.0000 0.0000 262.6883 -16660.7370 31.1037 -16923.4253 -16659.9248 30.2997 211.3755 284.3234 41682.1161 0.7217 0.6499
ENERGY: 20000 0.5475 0.0998 0.0221 0.0000 -20285.7309 3352.8013 0.0000 0.0000 253.6884 -16678.5719 30.0381 -16932.2603 -16677.7542 30.3657 -1414.9411 -1337.0897 42094.8500 3.2338 3.2510
ENERGY: 25000 0.0161 0.0758 0.0518 0.0000 -20520.7189 3578.6916 0.0000 0.0000 261.4074 -16680.4761 30.9520 -16941.8836 -16679.7369 30.0933 -93.4290 -19.9169 41765.0491 3.4715 3.2906
TCL: Running 25000 steps at 60 kelvin.
TCL: Setting parameter langevinTemp to 60
TCL: Running for 25000 steps
ETITLE: TS BOND ANGLE DIHED IMPRP ELECT VDW BOUNDARY MISC KINETIC TOTAL TEMP POTENTIAL TOTAL3 TEMPAVG PRESSURE GPRESSURE VOLUME PRESSAVG GPRESSAVG
ENERGY: 25000 0.0161 0.0758 0.0518 0.0000 -20520.7189 3578.6916 0.0000 0.0000 261.2838 -16680.5998 30.9374 -16941.8836 -16680.0103 30.9374 -90.4314 -19.9007 41765.0491 -90.4314 -19.9007
ENERGY: 30000 0.0448 0.1961 0.2474 0.0000 -20096.9616 3397.5814 0.0000 0.0000 509.2111 -16189.6807 60.2933 -16698.8918 -16188.3102 56.9799 -443.0778 -384.6689 41782.0577 9.2257 9.2930
ENERGY: 35000 0.5856 0.4063 0.1266 0.0000 -20267.6946 3530.3327 0.0000 0.0000 507.5872 -16228.6562 60.1011 -16736.2434 -16227.7998 60.6339 269.6455 318.6727 41568.0388 8.7468 8.7806
ENERGY: 40000 0.1130 0.3420 0.0372 0.0000 -20344.7582 3579.0870 0.0000 0.0000 512.6629 -16252.5161 60.7021 -16765.1790 -16251.6331 60.5713 430.3363 490.5983 41563.5372 5.3596 5.2609
ENERGY: 45000 0.1270 0.3474 0.2085 0.0000 -20381.6865 3605.3204 0.0000 0.0000 500.6309 -16275.0523 59.2774 -16775.6832 -16273.6173 60.2354 703.1573 745.1477 41348.8302 6.0771 6.2387
ENERGY: 50000 0.1236 0.1581 0.3901 0.0000 -20161.6619 3365.0988 0.0000 0.0000 509.4903 -16286.4010 60.3264 -16795.8913 -16284.6891 59.9819 -820.1929 -722.1066 41649.7902 4.3628 4.5703
TCL: Running 25000 steps at 90 kelvin.
TCL: Setting parameter langevinTemp to 90
TCL: Running for 25000 steps
ETITLE: TS BOND ANGLE DIHED IMPRP ELECT VDW BOUNDARY MISC KINETIC TOTAL TEMP POTENTIAL TOTAL3 TEMPAVG PRESSURE GPRESSURE VOLUME PRESSAVG GPRESSAVG
ENERGY: 50000 0.1236 0.1581 0.3901 0.0000 -20161.6619 3365.0988 0.0000 0.0000 509.2326 -16286.6587 60.2959 -16795.8913 -16285.3894 60.2959 -788.3158 -721.6916 41649.7902 -788.3158 -721.6916
ENERGY: 55000 0.1974 0.3208 0.5576 0.0000 -20082.4629 3535.9617 0.0000 0.0000 759.5286 -15785.8968 89.9323 -16545.4253 -15783.8402 87.2011 933.0603 998.4848 41238.9052 4.5540 4.6138
ENERGY: 60000 0.0108 0.4048 0.5650 0.0000 -20001.5230 3416.5875 0.0000 0.0000 771.6678 -15812.2871 91.3696 -16583.9549 -15810.4559 90.3741 65.4824 159.2088 41452.4142 2.1118 2.2599
ENERGY: 65000 0.3247 0.0953 0.0127 0.0000 -19852.6038 3234.0229 0.0000 0.0000 763.8552 -15854.2930 90.4446 -16618.1482 -15852.5228 89.7233 -1065.7358 -1032.3902 41755.6669 1.2363 1.3992
ENERGY: 70000 0.0178 0.6806 0.0468 0.0000 -19985.6233 3345.4531 0.0000 0.0000 770.9546 -15868.4703 91.2852 -16639.4250 -15865.8314 89.9352 -446.7264 -432.1245 41665.8887 2.7380 2.8849
ENERGY: 75000 0.2471 0.1766 0.1951 0.0000 -20066.0844 3405.2070 0.0000 0.0000 782.8751 -15877.3835 92.6966 -16660.2586 -15875.3830 89.8785 -230.7598 -178.5122 41550.9036 6.6930 6.9375
TCL: Running 25000 steps at 120 kelvin.
TCL: Setting parameter langevinTemp to 120
TCL: Running for 25000 steps
ETITLE: TS BOND ANGLE DIHED IMPRP ELECT VDW BOUNDARY MISC KINETIC TOTAL TEMP POTENTIAL TOTAL3 TEMPAVG PRESSURE GPRESSURE VOLUME PRESSAVG GPRESSAVG
ENERGY: 75000 0.2471 0.1766 0.1951 0.0000 -20066.0844 3405.2070 0.0000 0.0000 782.4882 -15877.7704 92.6508 -16660.2586 -15876.2507 92.6508 -231.7073 -178.3100 41550.9036 -231.7073 -178.3100
ENERGY: 80000 0.5863 0.1694 0.1462 0.0000 -19614.0964 3268.3118 0.0000 0.0000 1041.7100 -15303.1726 123.3441 -16344.8826 -15300.2637 118.0007 -45.3025 10.6585 41530.8319 2.6626 2.5751
ENERGY: 85000 0.2848 0.4629 0.9266 0.0000 -19649.9446 3292.6348 0.0000 0.0000 1006.1218 -15349.5138 119.1302 -16355.6356 -15347.2849 120.3648 -82.9301 7.4879 41630.4455 1.4527 2.2639
ENERGY: 90000 0.1117 0.3156 0.3282 0.0000 -19659.5308 3283.6690 0.0000 0.0000 1030.0991 -15345.0072 121.9693 -16375.1064 -15343.2703 120.0010 -232.0041 -142.2045 41787.2788 4.7568 4.2106
ENERGY: 95000 0.1638 0.1046 0.3184 0.0000 -19709.9274 3314.5753 0.0000 0.0000 1013.3727 -15381.3926 119.9888 -16394.7653 -15379.8414 121.1134 -154.4959 -94.7551 41966.2152 5.9442 6.0322
ENERGY: 100000 0.7721 0.9848 0.2403 0.0000 -19538.1787 3127.0997 0.0000 0.0000 1002.7454 -15406.3363 118.7305 -16409.0816 -15404.3663 120.1282 -1187.9094 -1124.5310 41949.8527 4.7707 4.9603
TCL: Running 25000 steps at 150 kelvin.
TCL: Setting parameter langevinTemp to 150
TCL: Running for 25000 steps
ETITLE: TS BOND ANGLE DIHED IMPRP ELECT VDW BOUNDARY MISC KINETIC TOTAL TEMP POTENTIAL TOTAL3 TEMPAVG PRESSURE GPRESSURE VOLUME PRESSAVG GPRESSAVG
ENERGY: 100000 0.7721 0.9848 0.2403 0.0000 -19538.1787 3127.0997 0.0000 0.0000 1002.2542 -15406.8274 118.6723 -16409.0816 -15404.5982 118.6723 -1180.4926 -1124.6118 41949.8527 -1180.4926 -1124.6118
ENERGY: 105000 1.0207 0.8666 0.2281 0.0000 -19367.1301 3233.5283 0.0000 0.0000 1230.2382 -14901.2483 145.6668 -16131.4865 -14898.4560 148.0761 214.1141 269.0586 41793.6772 -2.5659 -2.7192
ENERGY: 110000 0.0466 0.3342 0.5378 0.0000 -19447.1791 3283.3217 0.0000 0.0000 1275.0696 -14887.8692 150.9751 -16162.9388 -14884.6037 150.0964 344.2736 384.1489 41896.9239 0.8226 0.8693
ENERGY: 115000 0.1524 1.0916 0.0502 0.0000 -19494.4355 3256.7776 0.0000 0.0000 1288.8152 -14947.5484 152.6027 -16236.3637 -14944.9279 150.5145 -44.9738 36.7568 41933.2512 -1.5797 -1.5287
ENERGY: 120000 0.1598 0.0914 0.0374 0.0000 -19540.2804 3356.5134 0.0000 0.0000 1263.8113 -14919.6670 149.6421 -16183.4783 -14918.0946 150.0444 804.4314 854.6572 41528.8551 2.6815 2.9933
ENERGY: 125000 0.7315 0.8082 0.7935 0.0000 -19397.3835 3184.2416 0.0000 0.0000 1242.3208 -14968.4879 147.0975 -16210.8087 -14966.1593 149.4527 -181.8420 -156.4587 41683.0053 0.5584 0.4571
TCL: Running 50000 steps at 180 kelvin.
TCL: Setting parameter langevinTemp to 180
TCL: Running for 50000 steps
ETITLE: TS BOND ANGLE DIHED IMPRP ELECT VDW BOUNDARY MISC KINETIC TOTAL TEMP POTENTIAL TOTAL3 TEMPAVG PRESSURE GPRESSURE VOLUME PRESSAVG GPRESSAVG
ENERGY: 125000 0.7315 0.8082 0.7935 0.0000 -19397.3835 3184.2416 0.0000 0.0000 1241.6816 -14969.1271 147.0218 -16210.8087 -14966.5877 147.0218 -209.9097 -156.8053 41683.0053 -209.9097 -156.8053
ENERGY: 135000 0.4580 0.6306 0.2396 0.0000 -18855.5931 3030.7614 0.0000 0.0000 1480.1165 -14343.3870 175.2538 -15823.5035 -14339.7963 179.5730 -311.0957 -245.5765 42215.2582 2.3300 2.2032
ENERGY: 145000 0.3358 1.0632 0.2493 0.0000 -18897.1355 3103.1825 0.0000 0.0000 1520.0340 -14272.2708 179.9802 -15792.3047 -14268.4533 180.3326 434.8503 434.2607 41669.7221 0.5725 0.2682
ENERGY: 155000 0.2679 0.1232 1.1652 0.0000 -18873.5593 3017.7763 0.0000 0.0000 1546.8603 -14307.3664 183.1566 -15854.2267 -14303.1358 179.4375 -455.6598 -364.5777 42016.8947 4.6744 5.2352
ENERGY: 165000 0.3825 0.5892 0.5764 0.0000 -18797.5496 2956.1668 0.0000 0.0000 1548.7997 -14291.0350 183.3862 -15839.8347 -14289.0329 180.8455 -639.3299 -613.0472 41990.3626 1.3271 1.6552
ENERGY: 175000 0.5046 1.0287 1.4114 0.0000 -18883.8011 3064.0701 0.0000 0.0000 1522.9253 -14293.8610 180.3226 -15816.7864 -14291.0744 180.7023 281.9851 313.1979 41225.3631 -3.7000 -3.7226
TCL: Running 50000 steps at 210 kelvin.
TCL: Setting parameter langevinTemp to 210
TCL: Running for 50000 steps
ETITLE: TS BOND ANGLE DIHED IMPRP ELECT VDW BOUNDARY MISC KINETIC TOTAL TEMP POTENTIAL TOTAL3 TEMPAVG PRESSURE GPRESSURE VOLUME PRESSAVG GPRESSAVG
ENERGY: 175000 0.5046 1.0287 1.4114 0.0000 -18883.8011 3064.0701 0.0000 0.0000 1522.1459 -14294.6405 180.2303 -15816.7864 -14292.4712 180.2303 254.3120 313.5155 41225.3631 254.3120 313.5155
ENERGY: 185000 0.6993 1.9004 0.5070 0.0000 -17923.7084 2735.5513 0.0000 0.0000 1736.3232 -13448.7273 205.5900 -15185.0504 -13442.9853 210.2158 -209.1981 -109.6335 41740.3243 2.5350 2.1746
ENERGY: 195000 1.1605 1.2224 0.4419 0.0000 -17852.9152 2639.3482 0.0000 0.0000 1771.9555 -13438.7868 209.8091 -15210.7422 -13434.6370 209.9559 -690.8169 -635.3309 41769.6680 6.9354 6.9277
ENERGY: 205000 0.4080 0.4476 0.3530 0.0000 -18018.4853 2833.5214 0.0000 0.0000 1813.6565 -13370.0988 214.7467 -15183.7554 -13365.5282 209.4821 513.8304 628.0913 41310.4111 2.7642 2.6522
ENERGY: 215000 0.6989 1.8664 1.0721 0.0000 -18077.0455 2821.1546 0.0000 0.0000 1805.9587 -13446.2948 213.8352 -15252.2535 -13443.5834 209.5762 154.4765 271.5485 41648.7296 -1.3472 -1.4034
ENERGY: 225000 1.0200 0.6713 1.0410 0.0000 -17848.2200 2688.2226 0.0000 0.0000 1795.9961 -13361.2690 212.6556 -15157.2651 -13357.2058 210.5368 -301.1566 -245.0724 41734.3288 5.1114 5.3469
TCL: Running 50000 steps at 240 kelvin.
TCL: Setting parameter langevinTemp to 240
TCL: Running for 50000 steps
ETITLE: TS BOND ANGLE DIHED IMPRP ELECT VDW BOUNDARY MISC KINETIC TOTAL TEMP POTENTIAL TOTAL3 TEMPAVG PRESSURE GPRESSURE VOLUME PRESSAVG GPRESSAVG
ENERGY: 225000 1.0200 0.6713 1.0410 0.0000 -17848.2200 2688.2226 0.0000 0.0000 1795.1066 -13362.1585 212.5503 -15157.2651 -13359.1670 212.5503 -319.9725 -243.3393 41734.3288 -319.9725 -243.3393
ENERGY: 235000 0.4415 1.3624 0.1055 0.0000 -17028.5875 2445.3550 0.0000 0.0000 2020.2033 -12561.1197 239.2030 -14581.3230 -12555.3911 237.8017 -458.7260 -300.7656 41864.8112 3.2541 3.0316
ENERGY: 245000 1.1716 1.0974 0.0539 0.0000 -17131.5189 2473.2645 0.0000 0.0000 2031.0416 -12624.8900 240.4863 -14655.9315 -12617.8677 239.8868 -254.0101 -169.7009 41597.4549 -2.6748 -3.1035
ENERGY: 255000 0.3043 1.2418 0.1095 0.0000 -16908.9206 2372.8569 0.0000 0.0000 2006.9432 -12527.4650 237.6329 -14534.4082 -12523.1050 241.3429 -936.7558 -889.3283 42848.2262 4.3870 4.3577
ENERGY: 265000 1.7256 1.1566 1.4120 0.0000 -17047.0206 2473.2780 0.0000 0.0000 2024.8767 -12544.5717 239.7563 -14569.4484 -12539.7015 238.0607 -194.6211 -121.7946 41778.8572 4.8137 4.7359
ENERGY: 275000 0.2494 0.8854 1.1703 0.0000 -16999.9583 2481.4816 0.0000 0.0000 2014.6146 -12501.5570 238.5412 -14516.1716 -12495.5872 238.5060 193.7237 238.0625 41626.5262 4.1760 3.8971
TCL: Running 50000 steps at 270 kelvin.
TCL: Setting parameter langevinTemp to 270
TCL: Running for 50000 steps
ETITLE: TS BOND ANGLE DIHED IMPRP ELECT VDW BOUNDARY MISC KINETIC TOTAL TEMP POTENTIAL TOTAL3 TEMPAVG PRESSURE GPRESSURE VOLUME PRESSAVG GPRESSAVG
ENERGY: 275000 0.2494 0.8854 1.1703 0.0000 -16999.9583 2481.4816 0.0000 0.0000 2013.6085 -12502.5632 238.4221 -14516.1716 -12499.6611 238.4221 160.3857 237.6208 41626.5262 160.3857 237.6208
ENERGY: 285000 0.9802 0.7368 1.0968 0.0000 -16145.1667 2253.0983 0.0000 0.0000 2289.4650 -11599.7896 271.0850 -13889.2546 -11596.7373 271.0649 155.6614 217.9115 42606.1615 3.0942 3.5682
ENERGY: 295000 2.7533 1.1920 0.8821 0.0000 -16253.6769 2297.9855 0.0000 0.0000 2262.4562 -11688.4078 267.8870 -13950.8640 -11680.8535 267.7450 86.7146 174.4848 42632.8559 5.6445 5.6610
ENERGY: 305000 0.8034 1.2777 1.2375 0.0000 -16281.0195 2271.4253 0.0000 0.0000 2275.8380 -11730.4376 269.4715 -14006.2756 -11726.0623 270.2116 -78.4957 38.1661 42426.7936 4.1741 4.3087
ENERGY: 315000 2.0252 1.6117 0.5224 0.0000 -16128.0344 2264.4661 0.0000 0.0000 2326.7774 -11532.6317 275.5030 -13859.4090 -11529.7358 270.8059 -49.7718 61.4062 43173.7221 3.1115 2.8164
ENERGY: 325000 1.1562 0.3605 0.8156 0.0000 -16059.7507 2203.9864 0.0000 0.0000 2291.4919 -11561.9402 271.3250 -13853.4320 -11556.2057 271.3108 -53.0428 28.8635 42295.3286 3.1776 3.0213
TCL: Running 1000000 steps at 300 kelvin.
TCL: Setting parameter langevinTemp to 300
TCL: Running for 1000000 steps
ETITLE: TS BOND ANGLE DIHED IMPRP ELECT VDW BOUNDARY MISC KINETIC TOTAL TEMP POTENTIAL TOTAL3 TEMPAVG PRESSURE GPRESSURE VOLUME PRESSAVG GPRESSAVG
ENERGY: 325000 1.1562 0.3605 0.8156 0.0000 -16059.7507 2203.9864 0.0000 0.0000 2290.3391 -11563.0929 271.1885 -13853.4320 -11559.5893 271.1885 -54.8790 30.0343 42295.3286 -54.8790 30.0343
ENERGY: 525000 0.9453 1.1307 0.6046 0.0000 -15329.1866 2037.3673 0.0000 0.0000 2473.5790 -10815.5597 292.8851 -13289.1387 -10809.2151 300.8535 -13.1711 38.5927 43336.6351 -0.5044 -0.0763
ENERGY: 725000 1.0976 0.2266 1.6683 0.0000 -15395.8751 2033.0860 0.0000 0.0000 2585.9447 -10773.8518 306.1898 -13359.7965 -10770.2555 302.1411 -277.4754 -206.2316 43784.0582 5.1397 4.4053
ENERGY: 925000 0.6826 2.7227 1.4405 0.0000 -15319.4283 2028.9143 0.0000 0.0000 2491.7214 -10793.9468 295.0332 -13285.6682 -10789.6089 299.1073 -142.6221 -104.0288 44122.9969 1.8318 1.9626
ENERGY: 1125000 1.1809 1.2567 1.9810 0.0000 -15418.6433 2023.0721 0.0000 0.0000 2535.9622 -10855.1903 300.2716 -13391.1526 -10850.7527 299.8136 -548.3119 -410.4489 44139.4568 5.1539 5.3863
ENERGY: 1325000 0.4404 1.6611 2.2799 0.0000 -15435.6436 2070.1743 0.0000 0.0000 2473.1872 -10887.9006 292.8387 -13361.0878 -10886.0879 300.3667 -70.7473 8.7204 43882.0558 0.5222 0.1721
TCL: Exiting due to exit command.
