Info: SIMULATION PARAMETERS:
Info: TIMESTEP               2
Info: NUMBER OF STEPS        0
Info: STEPS PER CYCLE        10
Info: PERIODIC CELL BASIS 1  30.8472 0 0
Info: PERIODIC CELL BASIS 2  0 30.2071 0
Info: PERIODIC CELL BASIS 3  0 0 31.9168
Info: PERIODIC CELL CENTER   0 0 0
Info: WRAPPING WATERS AROUND PERIODIC BOUNDARIES ON OUTPUT.
Info: WRAPPING ALL CLUSTERS AROUND PERIODIC BOUNDARIES ON OUTPUT.
Info: FIRST LDB TIMESTEP     50
Info: LAST LDB TIMESTEP     -1
Info: HOM BACKGROUND SCALING 1
Info: PME BACKGROUND SCALING 1
Info: MIN ATOMS PER PATCH    40
Info: EMPTY PATCH LOAD       40 ATOMS
Info: VELOCITY FILE          mobley_3425174_equil.vel
Info: CENTER OF MASS MOVING INITIALLY? NO
Info: DIELECTRIC             1
Info: EXCLUDE                SCALED ONE-FOUR
Info: 1-4 ELECTROSTATICS SCALED BY 0.833333
Info: MODIFIED 1-4 VDW PARAMETERS WILL BE USED
Info: DCD FILENAME           mobley_3425174_prod.dcd
Info: DCD FREQUENCY          100000
Info: DCD FIRST STEP         100000
Info: DCD FILE WILL CONTAIN UNIT CELL DATA
Info: XST FILENAME           mobley_3425174_prod.xst
Info: XST FREQUENCY          100000
Info: NO VELOCITY DCD OUTPUT
Info: NO FORCE DCD OUTPUT
Info: OUTPUT FILENAME        mobley_3425174_prod
Info: BINARY OUTPUT FILES WILL BE USED
Info: RESTART FILENAME       mobley_3425174_prod.restart
Info: RESTART FREQUENCY      100000
Info: BINARY RESTART FILES WILL BE USED
Info: CUTOFF                 9
Info: PAIRLIST DISTANCE      11
Info: PAIRLIST SHRINK RATE   0.01
Info: PAIRLIST GROW RATE     0.01
Info: PAIRLIST TRIGGER       0.3
Info: PAIRLISTS PER CYCLE    2
Info: PAIRLISTS ENABLED
Info: MARGIN                 2
Info: HYDROGEN GROUP CUTOFF  2.5
Info: PATCH DIMENSION        15.5
Info: ENERGY OUTPUT STEPS    100000
Info: ENERGY EVALUATION STEPS    100000
Info: OUTPUT ENERGY PRECISION 4
Info: CROSSTERM ENERGY INCLUDED IN DIHEDRAL
Info: TIMING OUTPUT STEPS    1000000
Info: PRESSURE OUTPUT STEPS  100000
Info: ALCHEMICAL FEP ON
Info: FEP CURRENT LAMBDA VALUE     1
Info: FEP COMPARISON LAMBDA VALUE  0.95
Info: FEP INTRA-ALCHEMICAL NON-BONDED INTERACTIONS WILL BE RETAINED
Info: FEP INTRA-ALCHEMICAL BONDED INTERACTIONS WILL BE RETAINED
Info: FEP VDW SHIFTING COEFFICIENT 5
Info: FEP ELEC. ACTIVE FOR ANNIHILATED PARTICLES BETWEEN LAMBDA = 0 AND LAMBDA = 0.5
Info: FEP ELEC. ACTIVE FOR EXNIHILATED PARTICLES BETWEEN LAMBDA = 0.5 AND LAMBDA = 1
Info: FEP VDW ACTIVE FOR ANNIHILATED PARTICLES BETWEEN LAMBDA = 0 AND LAMBDA = 1
Info: FEP VDW ACTIVE FOR EXNIHILATED PARTICLES BETWEEN LAMBDA = 0 AND LAMBDA = 1
Info: FEP BOND ACTIVE FOR ANNIHILATED PARTICLES BETWEEN LAMBDA = 1 AND LAMBDA = 1
Info: FEP BOND ACTIVE FOR EXNIHILATED PARTICLES BETWEEN LAMBDA = 0 AND LAMBDA = 0
Info: LANGEVIN DYNAMICS ACTIVE
Info: LANGEVIN TEMPERATURE   300
Info: LANGEVIN USING BBK INTEGRATOR
Info: LANGEVIN DAMPING COEFFICIENT IS 1 INVERSE PS
Info: LANGEVIN DYNAMICS APPLIED TO HYDROGENS
Info: LANGEVIN PISTON PRESSURE CONTROL ACTIVE
Info:        TARGET PRESSURE IS 1.01325 BAR
Info:     OSCILLATION PERIOD IS 50 FS
Info:             DECAY TIME IS 25 FS
Info:     PISTON TEMPERATURE IS 300 K
Info:       PRESSURE CONTROL IS GROUP-BASED
Info:    INITIAL STRAIN RATE IS -0.000103252 -0.000103252 -0.000103252
Info:       CELL FLUCTUATION IS ISOTROPIC
Info: PARTICLE MESH EWALD (PME) ACTIVE
Info: PME TOLERANCE               1e-06
Info: PME EWALD COEFFICIENT       0.348832
Info: PME INTERPOLATION ORDER     4
Info: PME GRID DIMENSIONS         32 32 32
Info: PME MAXIMUM GRID SPACING    1
Info: PME CALCULATION WILL BE PERFORMED ON GPU
Info: FULL ELECTROSTATIC EVALUATION FREQUENCY      2
Info: USING VERLET I (r-RESPA) MTS SCHEME.
Info: C1 SPLITTING OF LONG RANGE ELECTROSTATICS
Info: PLACING ATOMS IN PATCHES BY HYDROGEN GROUPS
Info: RIGID BONDS TO HYDROGEN : ALL
Info:         ERROR TOLERANCE : 1e-08
Info:          MAX ITERATIONS : 100
Info: RIGID WATER USING SETTLE ALGORITHM
Info: RANDOM NUMBER SEED     1741961792
Info: USE HYDROGEN BONDS?    NO
Info: Using AMBER format force field!
Info: AMBER PARM FILE        mobley_3425174.prmtop
Info: COORDINATE PDB         mobley_3425174.pdb
Info: Exclusions will be read from PARM file!
Info: SCNB (VDW SCALING)     2
Info: USING ARITHMETIC MEAN TO COMBINE L-J SIGMA PARAMETERS
Info: BINARY COORDINATES     mobley_3425174_equil.coor
Info: SUMMARY OF PARAMETERS:
Info: 5 BONDS
Info: 4 ANGLES
Info:   4 HARMONIC
Info:   0 COSINE-BASED
Info: 0 DIHEDRAL
Info: 0 IMPROPER
Info: 0 CROSSTERM
Info: 0 VDW
Info: 21 VDW_PAIRS
Info: 0 NBTHOLE_PAIRS
Info: To read alchdata from file: mobley_3425174.pdb
Info: To read alchflag data from column: 5
Info: STRUCTURE SUMMARY:
Info: 2903 ATOMS
Info: 2902 BONDS
Info: 6 ANGLES
Info: 0 DIHEDRALS
Info: 0 IMPROPERS
Info: 0 CROSSTERMS
Info: 2908 EXCLUSIONS
Info: 2900 RIGID BONDS
Info: ALCH: 0 ATOMS TO DISAPPEAR IN FINAL STATE
Info: ALCH: 5 ATOMS TO APPEAR IN FINAL STATE
Info: 5809 DEGREES OF FREEDOM
Info: 969 HYDROGEN GROUPS
Info: 3 ATOMS IN LARGEST HYDROGEN GROUP
Info: 969 MIGRATION GROUPS
Info: 3 ATOMS IN LARGEST MIGRATION GROUP
Info: TOTAL MASS = 17471.9 amu
Info: TOTAL CHARGE = -9.99868e-05 e
Info: MASS DENSITY = 0.975564 g/cm^3
Info: ATOM DENSITY = 0.0976118 atoms/A^3
Info: ADDED 0 IMPLICIT EXCLUSIONS
Info: NONBONDED TABLE R-SQUARED SPACING: 0.0625
Info: NONBONDED TABLE SIZE: 705 POINTS
Info: REMOVING COM VELOCITY 0.255837 -0.0402533 0.264486
Info: Use 3D box decompostion in PME FFT.
Info: Updated CUDA force table with 4096 elements.
Info: Updated CUDA LJ table with 6 x 6 elements.
Info: Found 8 unique exclusion lists needing 8 bytes
TCL: Running for 1500000 steps
ETITLE: TS BOND ANGLE DIHED IMPRP ELECT VDW BOUNDARY MISC KINETIC TOTAL TEMP POTENTIAL TOTALAVG TEMPAVG PRESSURE GPRESSURE VOLUME PRESSAVG GPRESSAVG
ENERGY: 0 0.6276 1.5221 0.0000 0.0000 -10463.1699 1390.2654 0.0000 0.0000 1734.0265 -7336.7283 300.4310 -9070.7548 -7336.7283 300.4310 -15.6773 75.2815 29740.2478 -15.6773 75.2815
ENERGY: 300000 0.2658 0.7454 0.0000 0.0000 -10617.6428 1453.0053 0.0000 0.0000 1736.8224 -7426.8039 300.9154 -9163.6263 -7395.9162 301.0893 87.2493 194.7156 29947.1987 28.9952 109.0171
ENERGY: 600000 0.0803 0.6556 0.0000 0.0000 -10508.9148 1459.3402 0.0000 0.0000 1747.3512 -7301.4874 302.7396 -9048.8386 -7378.6252 301.6836 442.1577 479.2334 30330.7988 -50.7575 23.1093
ENERGY: 900000 0.8459 2.4412 0.0000 0.0000 -10659.1420 1453.8319 0.0000 0.0000 1738.0354 -7463.9876 301.1256 -9202.0230 -7387.2123 300.9450 142.8781 168.5793 29911.9956 -51.7986 18.7397
ENERGY: 1200000 0.2789 1.4570 0.0000 0.0000 -10476.8559 1391.2731 0.0000 0.0000 1690.6476 -7393.1993 292.9153 -9083.8469 -7381.4473 300.3841 -250.3346 -136.1910 30395.6661 -185.7739 -116.5501
ENERGY: 1500000 0.6959 2.0481 0.0000 0.0000 -10473.7294 1374.5682 0.0000 0.0000 1723.8034 -7372.6137 298.6598 -9096.4172 -7379.6267 300.2013 -195.9875 -238.1461 30062.4950 -91.5102 -29.1003
TCL: Running FEP window   2: Lambda1 0.95   Lambda2 0.8999999999999999 [dLambda -0.050000000000000044]
TCL: Setting parameter firsttimestep to 0
TCL: Setting parameter alchLambda to 0.95
Info: NONBONDED TABLE R-SQUARED SPACING: 0.0625
Info: NONBONDED TABLE SIZE: 705 POINTS
TCL: Setting parameter alchLambda2 to 0.8999999999999999
Info: NONBONDED TABLE R-SQUARED SPACING: 0.0625
Info: NONBONDED TABLE SIZE: 705 POINTS
TCL: Running for 1500000 steps
ETITLE: TS BOND ANGLE DIHED IMPRP ELECT VDW BOUNDARY MISC KINETIC TOTAL TEMP POTENTIAL TOTALAVG TEMPAVG PRESSURE GPRESSURE VOLUME PRESSAVG GPRESSAVG
ENERGY: 0 0.6959 2.0481 0.0000 0.0000 -10473.2269 1374.5314 0.0000 0.0000 1722.9399 -7373.0115 298.5102 -9095.9514 -7373.0115 298.5102 -333.0760 -243.1489 30062.4950 -333.0760 -243.1489
ENERGY: 300000 1.3550 1.1031 0.0000 0.0000 -10466.5571 1384.1045 0.0000 0.0000 1725.9273 -7354.0672 299.0278 -9079.9944 -7360.2176 299.9329 93.9431 114.8425 29892.8529 -17.6308 44.1657
ENERGY: 600000 0.3279 4.4177 0.0000 0.0000 -10511.2804 1387.5381 0.0000 0.0000 1694.2203 -7424.7764 293.5343 -9118.9966 -7370.2940 300.0201 -325.0575 -294.9846 30179.8664 -138.5499 -93.1577
ENERGY: 900000 0.3884 1.2452 0.0000 0.0000 -10632.2079 1488.9971 0.0000 0.0000 1781.6131 -7359.9642 308.6757 -9141.5773 -7385.8573 298.9812 742.3225 816.9965 29537.3116 -27.0872 25.7902
ENERGY: 1200000 0.2976 2.3911 0.0000 0.0000 -10631.3088 1422.6582 0.0000 0.0000 1692.7107 -7513.2512 293.2728 -9205.9619 -7398.6898 297.9020 -467.7945 -340.1182 30262.7507 -107.8722 -42.0556
ENERGY: 1500000 0.1063 0.9827 0.0000 0.0000 -10527.5227 1386.0162 0.0000 0.0000 1767.7914 -7372.6261 306.2810 -9140.4175 -7397.6851 299.7225 -668.4181 -597.4762 30530.7609 -128.6998 -65.6051
TCL: Running FEP window   3: Lambda1 0.8999999999999999 Lambda2 0.8499999999999999 [dLambda -0.050000000000000044]
TCL: Setting parameter firsttimestep to 0
TCL: Setting parameter alchLambda to 0.8999999999999999
Info: NONBONDED TABLE R-SQUARED SPACING: 0.0625
Info: NONBONDED TABLE SIZE: 705 POINTS
TCL: Setting parameter alchLambda2 to 0.8499999999999999
Info: NONBONDED TABLE R-SQUARED SPACING: 0.0625
Info: NONBONDED TABLE SIZE: 705 POINTS
TCL: Running for 1500000 steps
ETITLE: TS BOND ANGLE DIHED IMPRP ELECT VDW BOUNDARY MISC KINETIC TOTAL TEMP POTENTIAL TOTALAVG TEMPAVG PRESSURE GPRESSURE VOLUME PRESSAVG GPRESSAVG
ENERGY: 0 0.1063 0.9827 0.0000 0.0000 -10527.2357 1386.2255 0.0000 0.0000 1766.9158 -7373.0055 306.1293 -9139.9213 -7373.0055 306.1293 -685.3674 -600.5317 30530.7609 -685.3674 -600.5317
ENERGY: 300000 0.6499 0.3107 0.0000 0.0000 -10591.1007 1441.3771 0.0000 0.0000 1729.2283 -7419.5347 299.5997 -9148.7630 -7367.8004 305.3923 -83.2983 46.9222 30105.2136 -191.9292 -111.7711
ENERGY: 600000 1.5196 0.9420 0.0000 0.0000 -10500.2115 1370.1331 0.0000 0.0000 1766.7376 -7360.8791 306.0984 -9127.6168 -7401.5720 302.9114 -438.8487 -356.4646 30202.5419 -140.1092 -73.1121
ENERGY: 900000 0.6754 0.9691 0.0000 0.0000 -10634.5592 1477.6691 0.0000 0.0000 1704.4321 -7450.8134 295.3036 -9155.2456 -7410.9645 300.5165 472.1323 511.6415 29814.3766 -51.9676 18.3565
ENERGY: 1200000 1.9327 1.6361 0.0000 0.0000 -10563.8708 1465.7102 0.0000 0.0000 1709.3295 -7385.2622 296.1521 -9094.5918 -7402.9736 299.4230 200.8392 254.1946 30321.0639 -109.5039 -40.4038
ENERGY: 1500000 0.8336 0.8137 0.0000 0.0000 -10528.0428 1443.0151 0.0000 0.0000 1721.0384 -7362.3420 298.1807 -9083.3804 -7399.8473 299.1221 5.3669 66.0768 30457.3760 -109.6186 -40.3464
TCL: Running FEP window   4: Lambda1 0.8499999999999999 Lambda2 0.7999999999999998 [dLambda -0.050000000000000044]
TCL: Setting parameter firsttimestep to 0
TCL: Setting parameter alchLambda to 0.8499999999999999
Info: NONBONDED TABLE R-SQUARED SPACING: 0.0625
Info: NONBONDED TABLE SIZE: 705 POINTS
TCL: Setting parameter alchLambda2 to 0.7999999999999998
Info: NONBONDED TABLE R-SQUARED SPACING: 0.0625
Info: NONBONDED TABLE SIZE: 705 POINTS
TCL: Running for 1500000 steps
ETITLE: TS BOND ANGLE DIHED IMPRP ELECT VDW BOUNDARY MISC KINETIC TOTAL TEMP POTENTIAL TOTALAVG TEMPAVG PRESSURE GPRESSURE VOLUME PRESSAVG GPRESSAVG
ENERGY: 0 0.8336 0.8137 0.0000 0.0000 -10527.7614 1443.3002 0.0000 0.0000 1720.2014 -7362.6125 298.0357 -9082.8139 -7362.6125 298.0357 -23.1864 64.1873 30457.3760 -23.1864 64.1873
ENERGY: 300000 0.7730 1.5603 0.0000 0.0000 -10574.6408 1439.2466 0.0000 0.0000 1745.8985 -7387.1625 302.4879 -9133.0610 -7360.7097 302.3264 143.2928 141.8737 30039.3959 253.7653 319.2689
ENERGY: 600000 0.1259 1.2376 0.0000 0.0000 -10529.7143 1417.1311 0.0000 0.0000 1742.4566 -7368.7631 301.8916 -9111.2197 -7375.5338 300.0376 -55.3481 1.1997 30122.0651 200.2377 241.1942
ENERGY: 900000 0.3680 0.7953 0.0000 0.0000 -10531.8549 1431.1905 0.0000 0.0000 1770.4696 -7329.0313 306.7450 -9099.5010 -7362.1214 302.4708 261.5843 302.6367 30003.9821 246.8523 288.7042
ENERGY: 1200000 0.5557 1.3850 0.0000 0.0000 -10562.6736 1367.5166 0.0000 0.0000 1743.5947 -7449.6216 302.0888 -9193.2163 -7363.3939 302.4027 -568.3675 -485.8935 29963.1602 119.7892 173.9841
ENERGY: 1500000 0.0387 2.1100 0.0000 0.0000 -10470.1297 1374.6800 0.0000 0.0000 1730.6676 -7362.6334 299.8490 -9093.3010 -7364.3853 302.0897 -139.6325 -86.1148 29674.2368 87.6233 143.9666
TCL: Running FEP window   5: Lambda1 0.7999999999999998 Lambda2 0.7499999999999998 [dLambda -0.050000000000000044]
TCL: Setting parameter firsttimestep to 0
TCL: Setting parameter alchLambda to 0.7999999999999998
Info: NONBONDED TABLE R-SQUARED SPACING: 0.0625
Info: NONBONDED TABLE SIZE: 705 POINTS
TCL: Setting parameter alchLambda2 to 0.7499999999999998
Info: NONBONDED TABLE R-SQUARED SPACING: 0.0625
Info: NONBONDED TABLE SIZE: 705 POINTS
TCL: Running for 1500000 steps
ETITLE: TS BOND ANGLE DIHED IMPRP ELECT VDW BOUNDARY MISC KINETIC TOTAL TEMP POTENTIAL TOTALAVG TEMPAVG PRESSURE GPRESSURE VOLUME PRESSAVG GPRESSAVG
ENERGY: 0 0.0387 2.1100 0.0000 0.0000 -10469.9282 1374.3866 0.0000 0.0000 1729.7501 -7363.6429 299.6901 -9093.3930 -7363.6429 299.6901 -179.1678 -98.0986 29674.2368 -179.1678 -98.0986
ENERGY: 300000 1.3639 2.8148 0.0000 0.0000 -10550.9743 1420.1830 0.0000 0.0000 1733.5112 -7393.1013 300.3417 -9126.6125 -7424.0163 297.9748 -117.8117 -90.1693 30097.2722 -83.0105 -44.6104
ENERGY: 600000 0.4627 1.8650 0.0000 0.0000 -10630.2777 1486.4110 0.0000 0.0000 1721.8915 -7419.6476 298.3285 -9141.5391 -7405.2698 297.9420 384.5956 479.0374 29950.7718 -24.6837 31.5162
ENERGY: 900000 0.3053 2.6950 0.0000 0.0000 -10463.2766 1420.9239 0.0000 0.0000 1752.5048 -7286.8477 303.6325 -9039.3525 -7398.3847 298.3066 319.4799 363.1996 29889.5882 40.7476 96.9077
ENERGY: 1200000 0.7100 0.9886 0.0000 0.0000 -10719.0362 1533.9497 0.0000 0.0000 1734.3656 -7449.0224 300.4897 -9183.3880 -7404.9795 298.3338 986.4734 1084.3543 29432.1343 130.5256 197.7679
ENERGY: 1500000 1.6949 2.4687 0.0000 0.0000 -10520.9644 1375.6301 0.0000 0.0000 1742.0118 -7399.1589 301.8145 -9141.1707 -7394.9775 299.1386 -666.5270 -609.2125 30440.6789 94.8491 159.2521
TCL: Running FEP window   6: Lambda1 0.7499999999999998 Lambda2 0.6999999999999997 [dLambda -0.050000000000000044]
TCL: Setting parameter firsttimestep to 0
TCL: Setting parameter alchLambda to 0.7499999999999998
Info: NONBONDED TABLE R-SQUARED SPACING: 0.0625
Info: NONBONDED TABLE SIZE: 705 POINTS
TCL: Setting parameter alchLambda2 to 0.6999999999999997
Info: NONBONDED TABLE R-SQUARED SPACING: 0.0625
Info: NONBONDED TABLE SIZE: 705 POINTS
TCL: Running for 1500000 steps
ETITLE: TS BOND ANGLE DIHED IMPRP ELECT VDW BOUNDARY MISC KINETIC TOTAL TEMP POTENTIAL TOTALAVG TEMPAVG PRESSURE GPRESSURE VOLUME PRESSAVG GPRESSAVG
ENERGY: 0 1.6949 2.4687 0.0000 0.0000 -10520.8111 1375.9182 0.0000 0.0000 1741.1190 -7399.6103 301.6598 -9140.7293 -7399.6103 301.6598 -688.3780 -612.1654 30440.6789 -688.3780 -612.1654
ENERGY: 300000 1.5861 1.1124 0.0000 0.0000 -10690.1407 1503.8715 0.0000 0.0000 1729.5273 -7454.0434 299.6515 -9183.5707 -7371.0056 304.5700 605.9830 624.6702 29543.2772 -4.5841 48.8388
ENERGY: 600000 0.1050 1.0539 0.0000 0.0000 -10522.8920 1409.8746 0.0000 0.0000 1761.7435 -7350.1150 305.2331 -9111.8585 -7370.2118 302.0267 -292.9241 -231.8320 30495.4356 -133.3590 -68.0656
ENERGY: 900000 1.9563 0.7442 0.0000 0.0000 -10328.2381 1352.6075 0.0000 0.0000 1755.4134 -7217.5167 304.1364 -8972.9301 -7353.7850 301.9578 -53.0387 -38.9829 30188.4038 -164.6731 -107.3194
ENERGY: 1200000 0.1892 1.8976 0.0000 0.0000 -10481.7579 1318.2098 0.0000 0.0000 1740.0416 -7421.4196 301.4732 -9161.4612 -7362.0707 301.2003 -640.7367 -589.7854 29702.8028 -232.8790 -176.7357
ENERGY: 1500000 0.1105 2.8662 0.0000 0.0000 -10506.1711 1417.9300 0.0000 0.0000 1706.8336 -7378.4308 295.7197 -9085.2644 -7373.4956 299.9389 -99.9329 -29.5844 30171.7229 -241.2894 -179.0045
TCL: Running FEP window   7: Lambda1 0.6999999999999997 Lambda2 0.6499999999999997 [dLambda -0.050000000000000044]
TCL: Setting parameter firsttimestep to 0
TCL: Setting parameter alchLambda to 0.6999999999999997
Info: NONBONDED TABLE R-SQUARED SPACING: 0.0625
Info: NONBONDED TABLE SIZE: 705 POINTS
TCL: Setting parameter alchLambda2 to 0.6499999999999997
Info: NONBONDED TABLE R-SQUARED SPACING: 0.0625
Info: NONBONDED TABLE SIZE: 705 POINTS
TCL: Running for 1500000 steps
ETITLE: TS BOND ANGLE DIHED IMPRP ELECT VDW BOUNDARY MISC KINETIC TOTAL TEMP POTENTIAL TOTALAVG TEMPAVG PRESSURE GPRESSURE VOLUME PRESSAVG GPRESSAVG
ENERGY: 0 0.1105 2.8662 0.0000 0.0000 -10505.7021 1417.6340 0.0000 0.0000 1705.9854 -7379.1060 295.5727 -9085.0914 -7379.1060 295.5727 -118.2716 -38.1490 30171.7229 -118.2716 -38.1490
ENERGY: 300000 0.4666 1.5609 0.0000 0.0000 -10582.8401 1469.0505 0.0000 0.0000 1814.0028 -7297.7594 314.2874 -9111.7622 -7373.2983 303.8272 394.0549 404.6098 30169.7483 22.7167 102.8218
ENERGY: 600000 1.5058 2.0594 0.0000 0.0000 -10441.2700 1353.6335 0.0000 0.0000 1735.3984 -7348.6730 300.6687 -9084.0714 -7383.6962 301.6957 -400.1929 -300.8041 29898.1705 -107.5092 -21.5497
ENERGY: 900000 0.0026 1.4559 0.0000 0.0000 -10566.4219 1423.7168 0.0000 0.0000 1747.0370 -7394.2096 302.6851 -9141.2466 -7391.2208 300.4888 -153.2492 -124.6826 30327.7081 -28.3612 51.4487
ENERGY: 1200000 0.6987 2.9365 0.0000 0.0000 -10660.0772 1514.8609 0.0000 0.0000 1720.1229 -7421.4582 298.0221 -9141.5812 -7396.7268 298.6315 578.0126 626.4300 30075.5924 37.4039 109.0023
ENERGY: 1500000 0.1919 0.7456 0.0000 0.0000 -10520.8452 1411.4600 0.0000 0.0000 1740.8653 -7367.5824 301.6159 -9108.4477 -7389.3237 299.5098 33.7359 89.5640 29856.8409 28.1919 98.5913
TCL: Running FEP window   8: Lambda1 0.6499999999999997 Lambda2 0.5999999999999996 [dLambda -0.050000000000000044]
TCL: Setting parameter firsttimestep to 0
TCL: Setting parameter alchLambda to 0.6499999999999997
Info: NONBONDED TABLE R-SQUARED SPACING: 0.0625
Info: NONBONDED TABLE SIZE: 705 POINTS
TCL: Setting parameter alchLambda2 to 0.5999999999999996
Info: NONBONDED TABLE R-SQUARED SPACING: 0.0625
Info: NONBONDED TABLE SIZE: 705 POINTS
TCL: Running for 1500000 steps
ETITLE: TS BOND ANGLE DIHED IMPRP ELECT VDW BOUNDARY MISC KINETIC TOTAL TEMP POTENTIAL TOTALAVG TEMPAVG PRESSURE GPRESSURE VOLUME PRESSAVG GPRESSAVG
ENERGY: 0 0.1919 0.7456 0.0000 0.0000 -10520.6916 1411.2467 0.0000 0.0000 1739.9729 -7368.5345 301.4613 -9108.5074 -7368.5345 301.4613 9.3286 83.7366 29856.8409 9.3286 83.7366
ENERGY: 300000 0.8948 1.4372 0.0000 0.0000 -10514.3405 1406.7559 0.0000 0.0000 1736.0675 -7369.1851 300.7846 -9105.2526 -7357.5144 301.9971 -102.1509 -57.1474 29928.2699 -437.1794 -380.8641
ENERGY: 600000 0.3345 1.4854 0.0000 0.0000 -10399.0070 1380.2797 0.0000 0.0000 1733.2488 -7283.6586 300.2963 -9016.9074 -7356.8300 302.3056 -185.1215 -117.7313 30108.1582 -444.1536 -391.0766
ENERGY: 900000 1.2575 2.0515 0.0000 0.0000 -10456.4232 1296.7114 0.0000 0.0000 1749.7812 -7406.6215 303.1606 -9156.4028 -7370.6257 302.6965 -1214.2702 -1140.7493 30289.7037 -465.3979 -410.5985
ENERGY: 1200000 0.0297 0.8691 0.0000 0.0000 -10429.7245 1307.5869 0.0000 0.0000 1746.8796 -7374.3591 302.6579 -9121.2387 -7387.4379 301.2442 -956.6619 -921.2269 30089.4086 -430.7217 -383.2440
ENERGY: 1500000 0.0720 1.2248 0.0000 0.0000 -10453.4008 1392.8075 0.0000 0.0000 1782.9387 -7276.3578 308.9053 -9059.2965 -7376.8230 301.4218 89.8807 130.5082 29785.6778 -397.3683 -350.7849
TCL: Running FEP window   9: Lambda1 0.5999999999999996 Lambda2 0.5499999999999996 [dLambda -0.050000000000000044]
TCL: Setting parameter firsttimestep to 0
TCL: Setting parameter alchLambda to 0.5999999999999996
Info: NONBONDED TABLE R-SQUARED SPACING: 0.0625
Info: NONBONDED TABLE SIZE: 705 POINTS
TCL: Setting parameter alchLambda2 to 0.5499999999999996
Info: NONBONDED TABLE R-SQUARED SPACING: 0.0625
Info: NONBONDED TABLE SIZE: 705 POINTS
TCL: Running for 1500000 steps
ETITLE: TS BOND ANGLE DIHED IMPRP ELECT VDW BOUNDARY MISC KINETIC TOTAL TEMP POTENTIAL TOTALAVG TEMPAVG PRESSURE GPRESSURE VOLUME PRESSAVG GPRESSAVG
ENERGY: 0 0.0720 1.2248 0.0000 0.0000 -10453.3307 1393.0752 0.0000 0.0000 1782.0648 -7276.8939 308.7539 -9058.9587 -7276.8939 308.7539 46.0682 129.7225 29785.6778 46.0682 129.7225
ENERGY: 300000 0.9051 1.4847 0.0000 0.0000 -10504.4312 1384.3243 0.0000 0.0000 1755.2583 -7362.4588 304.1095 -9117.7171 -7386.3122 301.8644 -286.6241 -214.6015 29977.2807 49.5783 120.6950
ENERGY: 600000 1.0359 2.6619 0.0000 0.0000 -10628.6542 1501.5970 0.0000 0.0000 1722.2353 -7401.1242 298.3881 -9123.3594 -7392.5172 300.9309 405.4556 408.6601 30340.2635 121.5925 175.4704
ENERGY: 900000 0.4307 0.5530 0.0000 0.0000 -10543.0718 1380.7802 0.0000 0.0000 1708.2668 -7453.0412 295.9680 -9161.3080 -7402.5553 300.4670 -234.8423 -140.7812 29694.3974 -5.9465 50.4950
ENERGY: 1200000 0.8739 2.0701 0.0000 0.0000 -10633.1423 1480.2298 0.0000 0.0000 1714.7636 -7435.2049 297.0936 -9149.9684 -7394.6609 300.8074 311.8588 375.4497 29734.4553 28.3034 83.2568
ENERGY: 1500000 0.0954 3.1884 0.0000 0.0000 -10515.1315 1453.0412 0.0000 0.0000 1769.2233 -7289.5833 306.5291 -9058.8066 -7382.7113 301.3633 565.4072 588.4038 29927.5724 43.6137 95.4139
TCL: Running FEP window  10: Lambda1 0.5499999999999996 Lambda2 0.4999999999999996 [dLambda -0.04999999999999999]
TCL: Setting parameter firsttimestep to 0
TCL: Setting parameter alchLambda to 0.5499999999999996
Info: NONBONDED TABLE R-SQUARED SPACING: 0.0625
Info: NONBONDED TABLE SIZE: 705 POINTS
TCL: Setting parameter alchLambda2 to 0.4999999999999996
Info: NONBONDED TABLE R-SQUARED SPACING: 0.0625
Info: NONBONDED TABLE SIZE: 705 POINTS
TCL: Running for 1500000 steps
ETITLE: TS BOND ANGLE DIHED IMPRP ELECT VDW BOUNDARY MISC KINETIC TOTAL TEMP POTENTIAL TOTALAVG TEMPAVG PRESSURE GPRESSURE VOLUME PRESSAVG GPRESSAVG
ENERGY: 0 0.0954 3.1884 0.0000 0.0000 -10514.8406 1453.2790 0.0000 0.0000 1768.3459 -7289.9318 306.3771 -9058.2778 -7289.9318 306.3771 513.8648 587.9586 29927.5724 513.8648 587.9586
ENERGY: 300000 1.7158 0.6732 0.0000 0.0000 -10608.5634 1412.1289 0.0000 0.0000 1756.1303 -7437.9151 304.2606 -9194.0454 -7387.9222 304.7160 -118.1177 -44.9704 29854.2416 116.1549 186.3290
ENERGY: 600000 0.0813 0.6655 0.0000 0.0000 -10642.7003 1493.1561 0.0000 0.0000 1746.0051 -7402.7922 302.5064 -9148.7973 -7396.9609 302.7852 650.0815 765.5804 29663.6097 148.8115 231.0047
ENERGY: 900000 0.1467 2.5183 0.0000 0.0000 -10670.0103 1476.2492 0.0000 0.0000 1677.8131 -7513.2830 290.6917 -9191.0961 -7413.5906 300.8035 176.8274 245.3533 29866.2364 40.2689 122.8276
ENERGY: 1200000 0.8884 1.2519 0.0000 0.0000 -10688.6601 1490.8441 0.0000 0.0000 1734.8062 -7460.8694 300.5661 -9195.6756 -7419.2316 300.5951 182.2316 195.8919 30194.9295 54.0658 129.1247
ENERGY: 1500000 1.1426 2.3101 0.0000 0.0000 -10625.3737 1468.9849 0.0000 0.0000 1696.3712 -7456.5649 293.9070 -9152.9361 -7419.5281 300.6013 436.6695 487.2040 29827.8101 41.7160 110.1545
TCL: Running FEP window  11: Lambda1 0.4999999999999996 Lambda2 0.4499999999999996 [dLambda -0.04999999999999999]
TCL: Setting parameter firsttimestep to 0
TCL: Setting parameter alchLambda to 0.4999999999999996
Info: NONBONDED TABLE R-SQUARED SPACING: 0.0625
Info: NONBONDED TABLE SIZE: 705 POINTS
TCL: Setting parameter alchLambda2 to 0.4499999999999996
Info: NONBONDED TABLE R-SQUARED SPACING: 0.0625
Info: NONBONDED TABLE SIZE: 705 POINTS
TCL: Running for 1500000 steps
ETITLE: TS BOND ANGLE DIHED IMPRP ELECT VDW BOUNDARY MISC KINETIC TOTAL TEMP POTENTIAL TOTALAVG TEMPAVG PRESSURE GPRESSURE VOLUME PRESSAVG GPRESSAVG
ENERGY: 0 1.1426 2.3101 0.0000 0.0000 -10625.3459 1469.2151 0.0000 0.0000 1695.5381 -7457.1400 293.7626 -9152.6781 -7457.1400 293.7626 405.0706 487.5655 29827.8101 405.0706 487.5655
ENERGY: 300000 0.1493 0.6853 0.0000 0.0000 -10610.5280 1479.6744 0.0000 0.0000 1716.2666 -7413.7524 297.3540 -9130.0190 -7385.2731 301.0665 521.3898 649.2035 29594.9634 432.8200 513.8718
ENERGY: 600000 2.6023 1.3216 0.0000 0.0000 -10542.5101 1397.4878 0.0000 0.0000 1687.1562 -7453.9422 292.3104 -9141.0984 -7397.8387 299.3921 -482.8454 -439.2504 30387.2560 75.5564 151.1761
ENERGY: 900000 0.1066 1.2033 0.0000 0.0000 -10512.2054 1362.9581 0.0000 0.0000 1745.0748 -7402.8625 302.3452 -9147.9373 -7399.3023 299.5947 -555.3714 -445.1148 29880.8354 -34.5767 36.5868
ENERGY: 1200000 1.2990 1.9560 0.0000 0.0000 -10527.0548 1432.6460 0.0000 0.0000 1726.5592 -7364.5946 299.1372 -9091.1538 -7400.3575 299.7806 131.2186 192.5061 29887.4607 -42.1976 31.8895
ENERGY: 1500000 0.2022 1.2154 0.0000 0.0000 -10590.7302 1433.1207 0.0000 0.0000 1708.0948 -7448.0972 295.9382 -9156.1920 -7406.4788 299.8203 -130.5344 -84.8828 30063.9141 -79.6674 -15.8396
TCL: Running FEP window  12: Lambda1 0.4499999999999996 Lambda2 0.39999999999999963 [dLambda -0.04999999999999999]
TCL: Setting parameter firsttimestep to 0
TCL: Setting parameter alchLambda to 0.4499999999999996
Info: NONBONDED TABLE R-SQUARED SPACING: 0.0625
Info: NONBONDED TABLE SIZE: 705 POINTS
TCL: Setting parameter alchLambda2 to 0.39999999999999963
Info: NONBONDED TABLE R-SQUARED SPACING: 0.0625
Info: NONBONDED TABLE SIZE: 705 POINTS
TCL: Running for 1500000 steps
ETITLE: TS BOND ANGLE DIHED IMPRP ELECT VDW BOUNDARY MISC KINETIC TOTAL TEMP POTENTIAL TOTALAVG TEMPAVG PRESSURE GPRESSURE VOLUME PRESSAVG GPRESSAVG
ENERGY: 0 0.2022 1.2154 0.0000 0.0000 -10590.7293 1433.1162 0.0000 0.0000 1707.2366 -7448.9590 295.7895 -9156.1956 -7448.9590 295.7895 -175.3303 -87.8738 30063.9141 -175.3303 -87.8738
ENERGY: 300000 1.8101 2.1728 0.0000 0.0000 -10561.2093 1450.3399 0.0000 0.0000 1694.4274 -7412.4591 293.5702 -9106.8866 -7433.9818 294.2225 190.7480 267.8151 30047.7101 -248.1689 -157.4224
ENERGY: 600000 0.6643 1.6776 0.0000 0.0000 -10573.8925 1421.5800 0.0000 0.0000 1723.9473 -7426.0233 298.6847 -9149.9706 -7430.2765 295.8852 83.4496 132.4246 29670.2859 -200.2066 -149.6484
ENERGY: 900000 0.4052 2.3685 0.0000 0.0000 -10507.7992 1363.8914 0.0000 0.0000 1770.6767 -7370.4574 306.7809 -9141.1341 -7411.0327 296.7930 -601.2808 -562.0756 30164.2155 -180.6616 -138.5931
ENERGY: 1200000 1.6717 1.1401 0.0000 0.0000 -10429.0616 1384.9981 0.0000 0.0000 1731.3568 -7309.8949 299.9684 -9041.2517 -7399.8505 297.7492 30.0239 150.3595 29908.8056 -156.9573 -106.6977
ENERGY: 1500000 0.0922 1.0708 0.0000 0.0000 -10562.9638 1385.3947 0.0000 0.0000 1748.3310 -7428.0750 302.9093 -9176.4060 -7402.2320 298.5486 -134.5456 -131.3235 29553.7279 -114.1304 -58.7224
TCL: Running FEP window  13: Lambda1 0.39999999999999963 Lambda2 0.34999999999999964 [dLambda -0.04999999999999999]
TCL: Setting parameter firsttimestep to 0
TCL: Setting parameter alchLambda to 0.39999999999999963
Info: NONBONDED TABLE R-SQUARED SPACING: 0.0625
Info: NONBONDED TABLE SIZE: 705 POINTS
TCL: Setting parameter alchLambda2 to 0.34999999999999964
Info: NONBONDED TABLE R-SQUARED SPACING: 0.0625
Info: NONBONDED TABLE SIZE: 705 POINTS
TCL: Running for 1500000 steps
ETITLE: TS BOND ANGLE DIHED IMPRP ELECT VDW BOUNDARY MISC KINETIC TOTAL TEMP POTENTIAL TOTALAVG TEMPAVG PRESSURE GPRESSURE VOLUME PRESSAVG GPRESSAVG
ENERGY: 0 0.0922 1.0708 0.0000 0.0000 -10562.9627 1385.4949 0.0000 0.0000 1747.4580 -7428.8466 302.7581 -9176.3047 -7428.8466 302.7581 -217.6981 -131.7225 29553.7279 -217.6981 -131.7225
ENERGY: 300000 0.1500 0.5782 0.0000 0.0000 -10575.4369 1427.3650 0.0000 0.0000 1765.4055 -7381.9381 305.8676 -9147.3436 -7417.5866 301.5843 19.6630 1.9518 30039.9746 96.5562 135.7471
ENERGY: 600000 0.1275 2.1233 0.0000 0.0000 -10449.3849 1384.3016 0.0000 0.0000 1746.5534 -7316.2791 302.6014 -9062.8324 -7401.8322 300.3097 -149.8506 -108.3439 30124.1484 66.3139 111.5031
ENERGY: 900000 0.3606 1.8492 0.0000 0.0000 -10463.9461 1305.8865 0.0000 0.0000 1706.1461 -7449.7035 295.6005 -9155.8497 -7407.7987 299.3648 -719.1396 -659.1491 29363.3565 -83.0785 -23.2455
ENERGY: 1200000 0.0466 0.9530 0.0000 0.0000 -10313.0396 1300.0099 0.0000 0.0000 1684.4527 -7327.5773 291.8420 -9012.0301 -7397.1734 299.0305 -821.4158 -767.1469 30520.7090 -104.1697 -33.2667
ENERGY: 1500000 0.5558 0.8585 0.0000 0.0000 -10563.8145 1385.1433 0.0000 0.0000 1756.0007 -7421.2563 304.2382 -9177.2570 -7392.5265 299.5605 -154.9092 -92.1774 29442.0718 -118.1543 -50.5785
TCL: Running FEP window  14: Lambda1 0.34999999999999964 Lambda2 0.29999999999999966 [dLambda -0.04999999999999999]
TCL: Setting parameter firsttimestep to 0
TCL: Setting parameter alchLambda to 0.34999999999999964
Info: NONBONDED TABLE R-SQUARED SPACING: 0.0625
Info: NONBONDED TABLE SIZE: 705 POINTS
TCL: Setting parameter alchLambda2 to 0.29999999999999966
Info: NONBONDED TABLE R-SQUARED SPACING: 0.0625
Info: NONBONDED TABLE SIZE: 705 POINTS
TCL: Running for 1500000 steps
ETITLE: TS BOND ANGLE DIHED IMPRP ELECT VDW BOUNDARY MISC KINETIC TOTAL TEMP POTENTIAL TOTALAVG TEMPAVG PRESSURE GPRESSURE VOLUME PRESSAVG GPRESSAVG
ENERGY: 0 0.5558 0.8585 0.0000 0.0000 -10563.8140 1385.3690 0.0000 0.0000 1755.1266 -7421.9042 304.0867 -9177.0308 -7421.9042 304.0867 -200.4428 -93.3213 29442.0718 -200.4428 -93.3213
ENERGY: 300000 2.6202 1.1702 0.0000 0.0000 -10415.3435 1371.3978 0.0000 0.0000 1683.5421 -7356.6132 291.6843 -9040.1553 -7373.2491 301.3170 -480.1582 -436.6227 30316.4494 -145.5362 -59.2063
ENERGY: 600000 0.8729 1.4240 0.0000 0.0000 -10527.9678 1395.7028 0.0000 0.0000 1794.8325 -7335.1355 310.9660 -9129.9681 -7362.5827 302.2462 -231.3623 -147.7799 30018.1946 -149.8818 -63.2163
ENERGY: 900000 0.3647 1.7994 0.0000 0.0000 -10620.3275 1419.9700 0.0000 0.0000 1722.9033 -7475.2902 298.5038 -9198.1934 -7375.5837 302.5088 22.5547 106.4720 29544.5259 -77.9859 -2.9673
ENERGY: 1200000 0.5028 1.8672 0.0000 0.0000 -10600.7393 1531.1845 0.0000 0.0000 1707.0867 -7360.0982 295.7635 -9067.1849 -7380.3118 301.3457 957.4567 992.8441 29914.5663 13.9261 78.9621
ENERGY: 1500000 0.9276 1.1641 0.0000 0.0000 -10443.2417 1351.2754 0.0000 0.0000 1718.1541 -7371.7204 297.6810 -9089.8745 -7381.4269 300.5841 -620.9673 -543.8906 30296.2695 -27.3207 38.1865
TCL: Running FEP window  15: Lambda1 0.29999999999999966 Lambda2 0.24999999999999967 [dLambda -0.04999999999999999]
TCL: Setting parameter firsttimestep to 0
TCL: Setting parameter alchLambda to 0.29999999999999966
Info: NONBONDED TABLE R-SQUARED SPACING: 0.0625
Info: NONBONDED TABLE SIZE: 705 POINTS
TCL: Setting parameter alchLambda2 to 0.24999999999999967
Info: NONBONDED TABLE R-SQUARED SPACING: 0.0625
Info: NONBONDED TABLE SIZE: 705 POINTS
TCL: Running for 1500000 steps
ETITLE: TS BOND ANGLE DIHED IMPRP ELECT VDW BOUNDARY MISC KINETIC TOTAL TEMP POTENTIAL TOTALAVG TEMPAVG PRESSURE GPRESSURE VOLUME PRESSAVG GPRESSAVG
ENERGY: 0 0.9276 1.1641 0.0000 0.0000 -10443.2400 1351.5522 0.0000 0.0000 1717.2608 -7372.3352 297.5262 -9089.5960 -7372.3352 297.5262 -622.9126 -544.1792 30296.2695 -622.9126 -544.1792
ENERGY: 300000 1.0740 1.1555 0.0000 0.0000 -10588.6522 1410.0443 0.0000 0.0000 1743.1982 -7433.1803 302.0201 -9176.3785 -7390.8213 299.0025 -429.6371 -378.1482 30182.5276 -580.2787 -503.2172
ENERGY: 600000 0.7766 3.0021 0.0000 0.0000 -10455.0418 1410.3581 0.0000 0.0000 1707.0793 -7333.8257 295.7622 -9040.9050 -7391.7532 298.1201 164.7155 159.4695 29824.9422 -378.0167 -328.2655
ENERGY: 900000 0.1195 0.9749 0.0000 0.0000 -10626.6685 1458.0520 0.0000 0.0000 1743.1551 -7424.3671 302.0126 -9167.5222 -7385.0746 299.2254 -16.0296 11.0064 30148.1150 -421.8106 -367.5103
ENERGY: 1200000 1.8634 3.6459 0.0000 0.0000 -10639.5004 1476.1274 0.0000 0.0000 1761.8943 -7395.9694 305.2593 -9157.8637 -7392.8017 300.3731 342.8777 435.8368 29872.2537 -404.1831 -349.6528
ENERGY: 1500000 0.8473 1.3093 0.0000 0.0000 -10495.0492 1385.2337 0.0000 0.0000 1726.8968 -7380.7621 299.1957 -9107.6589 -7389.8260 300.2316 -270.4771 -317.2375 30076.8826 -328.3773 -282.5508
TCL: Running FEP window  16: Lambda1 0.24999999999999967 Lambda2 0.19999999999999968 [dLambda -0.04999999999999999]
TCL: Setting parameter firsttimestep to 0
TCL: Setting parameter alchLambda to 0.24999999999999967
Info: NONBONDED TABLE R-SQUARED SPACING: 0.0625
Info: NONBONDED TABLE SIZE: 705 POINTS
TCL: Setting parameter alchLambda2 to 0.19999999999999968
Info: NONBONDED TABLE R-SQUARED SPACING: 0.0625
Info: NONBONDED TABLE SIZE: 705 POINTS
TCL: Running for 1500000 steps
ETITLE: TS BOND ANGLE DIHED IMPRP ELECT VDW BOUNDARY MISC KINETIC TOTAL TEMP POTENTIAL TOTALAVG TEMPAVG PRESSURE GPRESSURE VOLUME PRESSAVG GPRESSAVG
ENERGY: 0 0.8473 1.3093 0.0000 0.0000 -10495.0486 1385.4911 0.0000 0.0000 1726.0288 -7381.3722 299.0453 -9107.4010 -7381.3722 299.0453 -404.3208 -318.1650 30076.8826 -404.3208 -318.1650
ENERGY: 300000 0.4918 1.7037 0.0000 0.0000 -10560.5285 1423.1767 0.0000 0.0000 1727.4853 -7407.6709 299.2977 -9135.1563 -7380.5486 298.8889 55.4218 118.8621 29722.5957 -38.5467 34.8729
ENERGY: 600000 0.0991 0.4486 0.0000 0.0000 -10645.7271 1420.0210 0.0000 0.0000 1751.1686 -7473.9898 303.4010 -9225.1584 -7406.5391 298.7511 -270.9358 -140.0337 29631.3685 -120.5418 -41.4920
ENERGY: 900000 1.1234 0.5430 0.0000 0.0000 -10502.5337 1390.0306 0.0000 0.0000 1732.0080 -7378.8287 300.0813 -9110.8367 -7406.8922 298.7522 -194.3013 -73.6504 29872.7411 -26.6421 59.7503
ENERGY: 1200000 0.0860 3.3697 0.0000 0.0000 -10584.7063 1445.1840 0.0000 0.0000 1727.7716 -7408.2951 299.3473 -9136.0667 -7399.3355 299.1101 1.0739 75.2232 29953.1335 -76.3908 14.7781
ENERGY: 1500000 0.6755 1.6925 0.0000 0.0000 -10488.9903 1406.4058 0.0000 0.0000 1693.5667 -7386.6498 293.4211 -9080.2165 -7396.2173 298.9820 161.5920 210.8246 29578.7283 -68.0049 19.8854
TCL: Running FEP window  17: Lambda1 0.19999999999999968 Lambda2 0.1499999999999997 [dLambda -0.04999999999999999]
TCL: Setting parameter firsttimestep to 0
TCL: Setting parameter alchLambda to 0.19999999999999968
Info: NONBONDED TABLE R-SQUARED SPACING: 0.0625
Info: NONBONDED TABLE SIZE: 705 POINTS
TCL: Setting parameter alchLambda2 to 0.1499999999999997
Info: NONBONDED TABLE R-SQUARED SPACING: 0.0625
Info: NONBONDED TABLE SIZE: 705 POINTS
TCL: Running for 1500000 steps
ETITLE: TS BOND ANGLE DIHED IMPRP ELECT VDW BOUNDARY MISC KINETIC TOTAL TEMP POTENTIAL TOTALAVG TEMPAVG PRESSURE GPRESSURE VOLUME PRESSAVG GPRESSAVG
ENERGY: 0 0.6755 1.6925 0.0000 0.0000 -10488.9903 1406.0281 0.0000 0.0000 1692.7406 -7387.8537 293.2780 -9080.5943 -7387.8537 293.2780 115.8069 204.0898 29578.7283 115.8069 204.0898
ENERGY: 300000 0.2724 0.5317 0.0000 0.0000 -10604.9105 1441.2737 0.0000 0.0000 1740.5118 -7422.3209 301.5546 -9162.8327 -7393.0246 297.9132 143.8126 263.8896 29633.6913 70.5231 136.8636
ENERGY: 600000 0.0529 1.1145 0.0000 0.0000 -10532.1565 1406.6925 0.0000 0.0000 1786.5955 -7337.7011 309.5389 -9124.2966 -7376.1037 300.6124 -169.8420 -127.9770 29844.3359 -108.9245 -58.4761
ENERGY: 900000 0.0928 0.6731 0.0000 0.0000 -10586.0284 1484.3091 0.0000 0.0000 1725.3406 -7375.6128 298.9261 -9100.9533 -7395.3608 298.8981 401.5014 438.8032 30085.4626 -95.5453 -40.8362
ENERGY: 1200000 0.3625 1.0950 0.0000 0.0000 -10430.2955 1329.8680 0.0000 0.0000 1724.7061 -7374.2640 298.8162 -9098.9701 -7401.0332 298.1582 -676.3654 -613.1994 29992.1330 -153.6615 -93.6474
ENERGY: 1500000 2.3261 0.4155 0.0000 0.0000 -10471.2269 1372.2130 0.0000 0.0000 1743.8405 -7352.4318 302.1313 -9096.2723 -7397.7411 298.5557 -270.0318 -259.1772 29660.2312 -234.3513 -179.6392
TCL: Running FEP window  18: Lambda1 0.1499999999999997 Lambda2 0.09999999999999969 [dLambda -0.05 ]
TCL: Setting parameter firsttimestep to 0
TCL: Setting parameter alchLambda to 0.1499999999999997
Info: NONBONDED TABLE R-SQUARED SPACING: 0.0625
Info: NONBONDED TABLE SIZE: 705 POINTS
TCL: Setting parameter alchLambda2 to 0.09999999999999969
Info: NONBONDED TABLE R-SQUARED SPACING: 0.0625
Info: NONBONDED TABLE SIZE: 705 POINTS
TCL: Running for 1500000 steps
ETITLE: TS BOND ANGLE DIHED IMPRP ELECT VDW BOUNDARY MISC KINETIC TOTAL TEMP POTENTIAL TOTALAVG TEMPAVG PRESSURE GPRESSURE VOLUME PRESSAVG GPRESSAVG
ENERGY: 0 2.3260 0.4155 0.0000 0.0000 -10471.2283 1371.9787 0.0000 0.0000 1742.9808 -7353.5272 301.9824 -9096.5080 -7353.5272 301.9824 -340.1307 -264.6992 29660.2312 -340.1307 -264.6992
ENERGY: 300000 0.3673 0.4729 0.0000 0.0000 -10618.5673 1458.7666 0.0000 0.0000 1719.5366 -7439.4240 297.9205 -9158.9605 -7397.5687 302.3741 142.5224 269.5136 29789.8572 -136.0571 -56.1935
ENERGY: 600000 0.7753 1.5927 0.0000 0.0000 -10549.7014 1431.6235 0.0000 0.0000 1689.1661 -7426.5440 292.6586 -9115.7100 -7385.7440 300.4075 -32.1286 40.8690 30224.8420 -167.3926 -102.4739
ENERGY: 900000 1.1046 2.2382 0.0000 0.0000 -10598.8418 1413.2645 0.0000 0.0000 1690.2773 -7491.9573 292.8512 -9182.2346 -7397.4158 300.3268 -45.8769 65.7092 29647.3533 -47.8780 17.8647
ENERGY: 1200000 0.0733 1.1799 0.0000 0.0000 -10525.5158 1400.6215 0.0000 0.0000 1691.5617 -7432.0793 293.0737 -9123.6410 -7393.2765 300.2431 -171.0341 -68.6529 29644.9383 -102.7770 -29.1602
ENERGY: 1500000 0.5327 1.7588 0.0000 0.0000 -10597.9484 1406.5283 0.0000 0.0000 1688.1619 -7500.9667 292.4847 -9189.1286 -7392.2174 299.9704 -361.3213 -233.1248 29847.8924 -154.9477 -78.7765
TCL: Running FEP window  19: Lambda1 0.09999999999999969 Lambda2 0.049999999999999684 [dLambda -0.05 ]
TCL: Setting parameter firsttimestep to 0
TCL: Setting parameter alchLambda to 0.09999999999999969
Info: NONBONDED TABLE R-SQUARED SPACING: 0.0625
Info: NONBONDED TABLE SIZE: 705 POINTS
TCL: Setting parameter alchLambda2 to 0.049999999999999684
Info: NONBONDED TABLE R-SQUARED SPACING: 0.0625
Info: NONBONDED TABLE SIZE: 705 POINTS
TCL: Running for 1500000 steps
ETITLE: TS BOND ANGLE DIHED IMPRP ELECT VDW BOUNDARY MISC KINETIC TOTAL TEMP POTENTIAL TOTALAVG TEMPAVG PRESSURE GPRESSURE VOLUME PRESSAVG GPRESSAVG
ENERGY: 0 0.5327 1.7588 0.0000 0.0000 -10597.9481 1406.6349 0.0000 0.0000 1687.3030 -7501.7187 292.3359 -9189.0218 -7501.7187 292.3359 -324.4394 -233.2451 29847.8924 -324.4394 -233.2451
ENERGY: 300000 0.6079 3.5581 0.0000 0.0000 -10684.8431 1502.5924 0.0000 0.0000 1774.9004 -7403.1842 307.5127 -9178.0846 -7451.9945 299.1474 288.7176 401.7183 29956.3228 -44.8401 75.8993
ENERGY: 600000 0.6219 1.1732 0.0000 0.0000 -10763.8065 1514.7969 0.0000 0.0000 1730.8916 -7516.3230 299.8879 -9247.2146 -7444.4922 301.1683 752.3398 807.3722 29106.8048 113.4627 199.0849
ENERGY: 900000 0.5805 1.0613 0.0000 0.0000 -10500.5555 1408.6020 0.0000 0.0000 1743.9169 -7346.3948 302.1446 -9090.3117 -7417.3064 301.0945 -50.7681 -44.6127 30186.8954 101.9037 182.2235
ENERGY: 1200000 2.4737 0.5721 0.0000 0.0000 -10467.7710 1362.7069 0.0000 0.0000 1723.5724 -7378.4458 298.6198 -9102.0182 -7410.8805 300.3913 -518.1470 -387.7287 29680.9611 69.7725 151.4030
ENERGY: 1500000 0.2503 1.4910 0.0000 0.0000 -10511.5519 1372.9685 0.0000 0.0000 1730.0909 -7406.7512 299.7491 -9136.8422 -7414.9663 299.7113 -757.6476 -675.3835 30497.8491 10.5446 92.5169
TCL: Running FEP window  20: Lambda1 0.049999999999999684 Lambda2 0.0    [dLambda -0.049999999999999684]
TCL: Setting parameter firsttimestep to 0
TCL: Setting parameter alchLambda to 0.049999999999999684
Info: NONBONDED TABLE R-SQUARED SPACING: 0.0625
Info: NONBONDED TABLE SIZE: 705 POINTS
TCL: Setting parameter alchLambda2 to 0.0
Info: NONBONDED TABLE R-SQUARED SPACING: 0.0625
Info: NONBONDED TABLE SIZE: 705 POINTS
TCL: Running for 1500000 steps
ETITLE: TS BOND ANGLE DIHED IMPRP ELECT VDW BOUNDARY MISC KINETIC TOTAL TEMP POTENTIAL TOTALAVG TEMPAVG PRESSURE GPRESSURE VOLUME PRESSAVG GPRESSAVG
ENERGY: 0 0.2503 1.4910 0.0000 0.0000 -10511.5502 1372.4305 0.0000 0.0000 1729.2284 -7408.1501 299.5997 -9137.3784 -7408.1501 299.5997 -750.4285 -675.3708 30497.8491 -750.4285 -675.3708
ENERGY: 300000 0.2658 0.7388 0.0000 0.0000 -10561.0627 1492.4553 0.0000 0.0000 1765.5935 -7302.0093 305.9002 -9067.6028 -7390.8790 301.0100 671.4373 742.3032 29821.6047 -245.6716 -178.2453
ENERGY: 600000 2.9109 2.2047 0.0000 0.0000 -10456.8627 1371.2573 0.0000 0.0000 1715.8872 -7364.6026 297.2883 -9080.4898 -7403.5999 299.0021 -428.7926 -381.2497 29953.6507 -192.0136 -134.5943
ENERGY: 900000 0.6291 1.9178 0.0000 0.0000 -10614.0149 1463.9141 0.0000 0.0000 1747.8470 -7399.7069 302.8255 -9147.5539 -7406.3685 299.1370 183.4158 235.5445 29712.5433 -172.6192 -109.3185
ENERGY: 1200000 0.4207 2.8524 0.0000 0.0000 -10536.3785 1416.3268 0.0000 0.0000 1754.7071 -7362.0715 304.0140 -9116.7785 -7404.1680 298.7448 -229.8148 -140.5112 30558.8012 -39.8622 22.1336
ENERGY: 1500000 0.1664 0.8310 0.0000 0.0000 -10552.6906 1424.3319 0.0000 0.0000 1740.7502 -7386.6110 301.5959 -9127.3612 -7399.2799 299.8962 35.7621 111.3698 29744.3744 -34.3807 27.0404
TCL: Exiting due to exit command.
