Info: SIMULATION PARAMETERS:
Info: TIMESTEP               2
Info: NUMBER OF STEPS        0
Info: STEPS PER CYCLE        10
Info: PERIODIC CELL BASIS 1  40.176 0 0
Info: PERIODIC CELL BASIS 2  0 39.115 0
Info: PERIODIC CELL BASIS 3  0 0 42.851
Info: PERIODIC CELL CENTER   0 0 0
Info: WRAPPING WATERS AROUND PERIODIC BOUNDARIES ON OUTPUT.
Info: WRAPPING ALL CLUSTERS AROUND PERIODIC BOUNDARIES ON OUTPUT.
Info: FIRST LDB TIMESTEP     50
Info: LAST LDB TIMESTEP     -1
Info: HOM BACKGROUND SCALING 1
Info: PME BACKGROUND SCALING 1
Info: MIN ATOMS PER PATCH    40
Info: EMPTY PATCH LOAD       40 ATOMS
Info: INITIAL TEMPERATURE    300
Info: CENTER OF MASS MOVING INITIALLY? NO
Info: DIELECTRIC             1
Info: EXCLUDE                SCALED ONE-FOUR
Info: 1-4 ELECTROSTATICS SCALED BY 0.833333
Info: MODIFIED 1-4 VDW PARAMETERS WILL BE USED
Info: DCD FILENAME           mobley_755351_min.dcd
Info: DCD FREQUENCY          5000
Info: DCD FIRST STEP         5000
Info: DCD FILE WILL CONTAIN UNIT CELL DATA
Info: XST FILENAME           mobley_755351_min.xst
Info: XST FREQUENCY          5000
Info: NO VELOCITY DCD OUTPUT
Info: NO FORCE DCD OUTPUT
Info: OUTPUT FILENAME        mobley_755351_min
Info: BINARY OUTPUT FILES WILL BE USED
Info: RESTART FILENAME       mobley_755351_min.restart
Info: RESTART FREQUENCY      5000
Info: BINARY RESTART FILES WILL BE USED
Info: CUTOFF                 9
Info: PAIRLIST DISTANCE      11
Info: PAIRLIST SHRINK RATE   0.01
Info: PAIRLIST GROW RATE     0.01
Info: PAIRLIST TRIGGER       0.3
Info: PAIRLISTS PER CYCLE    2
Info: PAIRLISTS ENABLED
Info: MARGIN                 8
Info: HYDROGEN GROUP CUTOFF  2.5
Info: PATCH DIMENSION        21.5
Info: ENERGY OUTPUT STEPS    5000
Info: ENERGY EVALUATION STEPS    5000
Info: OUTPUT ENERGY PRECISION 4
Info: CROSSTERM ENERGY INCLUDED IN DIHEDRAL
Info: TIMING OUTPUT STEPS    50000
Info: PRESSURE OUTPUT STEPS  5000
Info: LANGEVIN DYNAMICS ACTIVE
Info: LANGEVIN TEMPERATURE   300
Info: LANGEVIN USING BBK INTEGRATOR
Info: LANGEVIN DAMPING COEFFICIENT IS 1 INVERSE PS
Info: LANGEVIN DYNAMICS APPLIED TO HYDROGENS
Info: LANGEVIN PISTON PRESSURE CONTROL ACTIVE
Info:        TARGET PRESSURE IS 1.01325 BAR
Info:     OSCILLATION PERIOD IS 50 FS
Info:             DECAY TIME IS 25 FS
Info:     PISTON TEMPERATURE IS 300 K
Info:       PRESSURE CONTROL IS GROUP-BASED
Info:    INITIAL STRAIN RATE IS 0 0 0
Info:       CELL FLUCTUATION IS ISOTROPIC
Info: PARTICLE MESH EWALD (PME) ACTIVE
Info: PME TOLERANCE               1e-06
Info: PME EWALD COEFFICIENT       0.348832
Info: PME INTERPOLATION ORDER     4
Info: PME GRID DIMENSIONS         44 40 44
Info: PME MAXIMUM GRID SPACING    1
Info: FULL ELECTROSTATIC EVALUATION FREQUENCY      2
Info: USING VERLET I (r-RESPA) MTS SCHEME.
Info: C1 SPLITTING OF LONG RANGE ELECTROSTATICS
Info: PLACING ATOMS IN PATCHES BY HYDROGEN GROUPS
Info: RIGID BONDS TO HYDROGEN : ALL
Info:         ERROR TOLERANCE : 1e-08
Info:          MAX ITERATIONS : 100
Info: RIGID WATER USING SETTLE ALGORITHM
Info: RANDOM NUMBER SEED     1741392735
Info: USE HYDROGEN BONDS?    NO
Info: Using AMBER format force field!
Info: AMBER PARM FILE        mobley_755351.prmtop
Info: COORDINATE PDB         mobley_755351.pdb
Info: Exclusions will be read from PARM file!
Info: SCNB (VDW SCALING)     2
Info: USING ARITHMETIC MEAN TO COMBINE L-J SIGMA PARAMETERS
Info: SUMMARY OF PARAMETERS:
Info: 9 BONDS
Info: 9 ANGLES
Info:   9 HARMONIC
Info:   0 COSINE-BASED
Info: 5 DIHEDRAL
Info: 0 IMPROPER
Info: 0 CROSSTERM
Info: 0 VDW
Info: 45 VDW_PAIRS
Info: 0 NBTHOLE_PAIRS
Info: STRUCTURE SUMMARY:
Info: 4884 ATOMS
Info: 4884 BONDS
Info: 28 ANGLES
Info: 37 DIHEDRALS
Info: 0 IMPROPERS
Info: 0 CROSSTERMS
Info: 4942 EXCLUSIONS
Info: 4875 RIGID BONDS
Info: 9777 DEGREES OF FREEDOM
Info: 1631 HYDROGEN GROUPS
Info: 4 ATOMS IN LARGEST HYDROGEN GROUP
Info: 1631 MIGRATION GROUPS
Info: 4 ATOMS IN LARGEST MIGRATION GROUP
Info: TOTAL MASS = 29345.1 amu
Info: TOTAL CHARGE = -0.000100024 e
Info: MASS DENSITY = 0.723642 g/cm^3
Info: ATOM DENSITY = 0.0725278 atoms/A^3
Info: ADDED 0 IMPLICIT EXCLUSIONS
Info: NONBONDED TABLE R-SQUARED SPACING: 0.0625
Info: NONBONDED TABLE SIZE: 705 POINTS
Info: REMOVING COM VELOCITY -0.0756855 0.0651833 0.0789835
TCL: Minimizing for 2000 steps
ETITLE: TS BOND ANGLE DIHED IMPRP ELECT VDW BOUNDARY MISC KINETIC TOTAL TEMP POTENTIAL TOTAL3 TEMPAVG PRESSURE GPRESSURE VOLUME PRESSAVG GPRESSAVG
ENERGY: 0 0.0688 1.0226 0.0254 0.0000 -15312.7287 1751.5609 0.0000 0.0000 0.0000 -13560.0509 0.0000 -13560.0509 -13560.0509 0.0000 11290.7864 -15813.6474 67339.6712 11290.7864 -15813.6474
ENERGY: 400 2.9379 3.1382 1.4756 0.0000 -20300.2169 2858.7874 0.0000 0.0000 0.0000 -17433.8778 0.0000 -17433.8778 -17433.8778 0.0000 15338.3590 15492.7896 67339.6712 15338.3590 15492.7896
ENERGY: 800 1.4140 1.4223 1.2206 0.0000 -21509.9872 3452.4982 0.0000 0.0000 0.0000 -18053.4322 0.0000 -18053.4322 -18053.4322 0.0000 18078.4436 18203.2566 67339.6712 18078.4436 18203.2566
ENERGY: 1200 4.3671 1.5850 1.0381 0.0000 -22127.4448 3757.1216 0.0000 0.0000 0.0000 -18363.3331 0.0000 -18363.3331 -18363.3331 0.0000 19554.1038 19670.8200 67339.6712 19554.1038 19670.8200
ENERGY: 1600 0.2746 1.1281 1.0808 0.0000 -22288.9854 3809.9874 0.0000 0.0000 0.0000 -18476.5145 0.0000 -18476.5145 -18476.5145 0.0000 19845.8634 19964.3590 67339.6712 19845.8634 19964.3590
ENERGY: 2000 0.3735 1.1001 1.2289 0.0000 -22421.4539 3874.9191 0.0000 0.0000 0.0000 -18543.8324 0.0000 -18543.8324 -18543.8324 0.0000 20178.0576 20292.7133 67339.6712 20178.0576 20292.7133
TCL: Exiting due to exit command.
Info: NAMD 3.0.1 for Linux-x86_64-multicore
Info: Please visit http://www.ks.uiuc.edu/Research/namd/
Info: for updates, documentation, and support information.
Info: Please cite Phillips et al., J. Chem. Phys. 153:044130 (2020) doi:10.1063/5.0014475
Info: in all publications reporting results obtained with NAMD.
Info: Based on Charm++/Converse 80000 for multicore-linux-x86_64-gcc
Info: Built Mon Oct 14 11:11:06 CDT 2024 by dhardy on athine.ks.uiuc.edu
Info: 1 NAMD  3.0.1  Linux-x86_64-multicore  16    k011  z5358697
Info: Running on 16 processors, 1 nodes, 1 physical nodes.
Info: CPU topology information available.
Info: Charm++/Converse parallel runtime startup completed at 0.00977721 s
Info: 1043.45 MB of memory in use based on /proc/self/stat
Info: Configuration file is mobley_755351_equil.namd
Info: Working in the current directory /srv/scratch/z5358697/prod_prep_9/755351
TCL: Running 25000 steps at 30 kelvin.
TCL: Suspending until startup complete.
Info: SIMULATION PARAMETERS:
Info: TIMESTEP               2
Info: NUMBER OF STEPS        0
Info: STEPS PER CYCLE        10
Info: PERIODIC CELL BASIS 1  40.176 0 0
Info: PERIODIC CELL BASIS 2  0 39.115 0
Info: PERIODIC CELL BASIS 3  0 0 42.851
Info: PERIODIC CELL CENTER   0 0 0
Info: WRAPPING WATERS AROUND PERIODIC BOUNDARIES ON OUTPUT.
Info: WRAPPING ALL CLUSTERS AROUND PERIODIC BOUNDARIES ON OUTPUT.
Info: FIRST LDB TIMESTEP     50
Info: LAST LDB TIMESTEP     -1
Info: HOM BACKGROUND SCALING 1
Info: PME BACKGROUND SCALING 1
Info: MIN ATOMS PER PATCH    40
Info: EMPTY PATCH LOAD       40 ATOMS
Info: INITIAL TEMPERATURE    300
Info: CENTER OF MASS MOVING INITIALLY? NO
Info: DIELECTRIC             1
Info: EXCLUDE                SCALED ONE-FOUR
Info: 1-4 ELECTROSTATICS SCALED BY 0.833333
Info: MODIFIED 1-4 VDW PARAMETERS WILL BE USED
Info: DCD FILENAME           mobley_755351_equil.dcd
Info: DCD FREQUENCY          5000
Info: DCD FIRST STEP         5000
Info: DCD FILE WILL CONTAIN UNIT CELL DATA
Info: XST FILENAME           mobley_755351_equil.xst
Info: XST FREQUENCY          5000
Info: NO VELOCITY DCD OUTPUT
Info: NO FORCE DCD OUTPUT
Info: OUTPUT FILENAME        mobley_755351_equil
Info: BINARY OUTPUT FILES WILL BE USED
Info: RESTART FILENAME       mobley_755351_equil.restart
Info: RESTART FREQUENCY      5000
Info: BINARY RESTART FILES WILL BE USED
Info: CUTOFF                 9
Info: PAIRLIST DISTANCE      11
Info: PAIRLIST SHRINK RATE   0.01
Info: PAIRLIST GROW RATE     0.01
Info: PAIRLIST TRIGGER       0.3
Info: PAIRLISTS PER CYCLE    2
Info: PAIRLISTS ENABLED
Info: MARGIN                 8
Info: HYDROGEN GROUP CUTOFF  2.5
Info: PATCH DIMENSION        21.5
Info: ENERGY OUTPUT STEPS    5000
Info: ENERGY EVALUATION STEPS    5000
Info: OUTPUT ENERGY PRECISION 4
Info: CROSSTERM ENERGY INCLUDED IN DIHEDRAL
Info: TIMING OUTPUT STEPS    50000
Info: PRESSURE OUTPUT STEPS  5000
Info: LANGEVIN DYNAMICS ACTIVE
Info: LANGEVIN TEMPERATURE   30
Info: LANGEVIN USING BBK INTEGRATOR
Info: LANGEVIN DAMPING COEFFICIENT IS 1 INVERSE PS
Info: LANGEVIN DYNAMICS APPLIED TO HYDROGENS
Info: LANGEVIN PISTON PRESSURE CONTROL ACTIVE
Info:        TARGET PRESSURE IS 1.01325 BAR
Info:     OSCILLATION PERIOD IS 50 FS
Info:             DECAY TIME IS 25 FS
Info:     PISTON TEMPERATURE IS 300 K
Info:       PRESSURE CONTROL IS GROUP-BASED
Info:    INITIAL STRAIN RATE IS 0 0 0
Info:       CELL FLUCTUATION IS ISOTROPIC
Info: PARTICLE MESH EWALD (PME) ACTIVE
Info: PME TOLERANCE               1e-06
Info: PME EWALD COEFFICIENT       0.348832
Info: PME INTERPOLATION ORDER     4
Info: PME GRID DIMENSIONS         44 40 44
Info: PME MAXIMUM GRID SPACING    1
Info: FULL ELECTROSTATIC EVALUATION FREQUENCY      2
Info: USING VERLET I (r-RESPA) MTS SCHEME.
Info: C1 SPLITTING OF LONG RANGE ELECTROSTATICS
Info: PLACING ATOMS IN PATCHES BY HYDROGEN GROUPS
Info: RIGID BONDS TO HYDROGEN : ALL
Info:         ERROR TOLERANCE : 1e-08
Info:          MAX ITERATIONS : 100
Info: RIGID WATER USING SETTLE ALGORITHM
Info: RANDOM NUMBER SEED     1741392751
Info: USE HYDROGEN BONDS?    NO
Info: Using AMBER format force field!
Info: AMBER PARM FILE        mobley_755351.prmtop
Info: COORDINATE PDB         mobley_755351.pdb
Info: Exclusions will be read from PARM file!
Info: SCNB (VDW SCALING)     2
Info: USING ARITHMETIC MEAN TO COMBINE L-J SIGMA PARAMETERS
Info: BINARY COORDINATES     mobley_755351_min.coor
Info: SUMMARY OF PARAMETERS:
Info: 9 BONDS
Info: 9 ANGLES
Info:   9 HARMONIC
Info:   0 COSINE-BASED
Info: 5 DIHEDRAL
Info: 0 IMPROPER
Info: 0 CROSSTERM
Info: 0 VDW
Info: 45 VDW_PAIRS
Info: 0 NBTHOLE_PAIRS
Info: STRUCTURE SUMMARY:
Info: 4884 ATOMS
Info: 4884 BONDS
Info: 28 ANGLES
Info: 37 DIHEDRALS
Info: 0 IMPROPERS
Info: 0 CROSSTERMS
Info: 4942 EXCLUSIONS
Info: 4875 RIGID BONDS
Info: 9777 DEGREES OF FREEDOM
Info: 1631 HYDROGEN GROUPS
Info: 4 ATOMS IN LARGEST HYDROGEN GROUP
Info: 1631 MIGRATION GROUPS
Info: 4 ATOMS IN LARGEST MIGRATION GROUP
Info: TOTAL MASS = 29345.1 amu
Info: TOTAL CHARGE = -0.000100024 e
Info: MASS DENSITY = 0.723642 g/cm^3
Info: ATOM DENSITY = 0.0725278 atoms/A^3
Info: ADDED 0 IMPLICIT EXCLUSIONS
Info: NONBONDED TABLE R-SQUARED SPACING: 0.0625
Info: NONBONDED TABLE SIZE: 705 POINTS
Info: REMOVING COM VELOCITY -0.165595 0.0571657 0.0298887
TCL: Running for 25000 steps
ETITLE: TS BOND ANGLE DIHED IMPRP ELECT VDW BOUNDARY MISC KINETIC TOTAL TEMP POTENTIAL TOTAL3 TEMPAVG PRESSURE GPRESSURE VOLUME PRESSAVG GPRESSAVG
ENERGY: 0 0.3735 1.1001 1.2289 0.0000 -22421.4539 3874.9191 0.0000 0.0000 2891.2171 -15652.6153 297.6223 -18543.8324 -15652.0902 297.6223 332.7141 367.6638 67339.6712 332.7141 367.6638
ENERGY: 5000 0.8673 1.2259 2.3315 0.0000 -23485.1497 4069.5927 0.0000 0.0000 298.8555 -19112.2768 30.7642 -19411.1322 -19111.1445 47.5513 -28.5816 31.6301 47684.4183 4.5723 4.6769
ENERGY: 10000 1.3618 1.1293 2.0599 0.0000 -23509.4696 4046.9010 0.0000 0.0000 295.3008 -19162.7169 30.3983 -19458.0177 -19161.9495 30.2794 -235.8772 -172.4309 47731.7518 4.6831 4.6149
ENERGY: 15000 0.7574 1.7116 2.8898 0.0000 -23564.8652 4090.9150 0.0000 0.0000 293.1777 -19175.4137 30.1798 -19468.5914 -19174.4139 29.9952 -3.3806 50.9815 47546.4286 5.3221 5.7023
ENERGY: 20000 0.2815 1.2782 2.0967 0.0000 -23639.3961 4143.1415 0.0000 0.0000 302.6086 -19189.9897 31.1506 -19492.5982 -19189.1446 30.0616 260.1166 317.4040 47394.8851 -1.6403 -1.7250
ENERGY: 25000 0.5773 1.6099 2.1045 0.0000 -23216.2217 3725.3713 0.0000 0.0000 289.4597 -19197.0990 29.7970 -19486.5587 -19196.0944 30.0630 -1866.6004 -1808.8846 47929.1527 5.8938 5.6293
TCL: Running 25000 steps at 60 kelvin.
TCL: Setting parameter langevinTemp to 60
TCL: Running for 25000 steps
ETITLE: TS BOND ANGLE DIHED IMPRP ELECT VDW BOUNDARY MISC KINETIC TOTAL TEMP POTENTIAL TOTAL3 TEMPAVG PRESSURE GPRESSURE VOLUME PRESSAVG GPRESSAVG
ENERGY: 25000 0.5773 1.6099 2.1045 0.0000 -23216.2217 3725.3713 0.0000 0.0000 289.3159 -19197.2428 29.7822 -19486.5587 -19196.5653 29.7822 -1867.6353 -1808.7886 47929.1527 -1867.6353 -1808.7886
ENERGY: 30000 1.1211 2.3374 3.3887 0.0000 -23014.2896 3766.1661 0.0000 0.0000 576.4090 -18664.8673 59.3356 -19241.2763 -18663.5951 57.4077 -1061.3293 -998.4991 47716.1277 0.7940 0.6509
ENERGY: 35000 0.4759 2.3333 1.4874 0.0000 -23436.9100 4143.2270 0.0000 0.0000 595.4094 -18693.9770 61.2915 -19289.3864 -18692.0127 60.3233 857.0008 920.5736 46993.8851 2.7452 2.4761
ENERGY: 40000 0.6122 2.0316 2.5337 0.0000 -23302.4248 3968.7607 0.0000 0.0000 574.1202 -18754.3665 59.1000 -19328.4866 -18752.7962 59.8997 -176.4580 -127.4857 47436.0804 2.0560 1.5834
ENERGY: 45000 0.6744 1.9730 3.2271 0.0000 -23270.5699 3927.4734 0.0000 0.0000 591.9584 -18745.2637 60.9363 -19337.2221 -18743.8361 60.2271 -354.4138 -295.3159 47286.7294 6.5530 6.6715
ENERGY: 50000 0.1293 2.0893 2.1996 0.0000 -23471.9772 4118.3446 0.0000 0.0000 581.1086 -18768.1058 59.8194 -19349.2144 -18766.8938 59.7731 591.2858 633.3181 47159.8111 0.3881 0.3960
TCL: Running 25000 steps at 90 kelvin.
TCL: Setting parameter langevinTemp to 90
TCL: Running for 25000 steps
ETITLE: TS BOND ANGLE DIHED IMPRP ELECT VDW BOUNDARY MISC KINETIC TOTAL TEMP POTENTIAL TOTAL3 TEMPAVG PRESSURE GPRESSURE VOLUME PRESSAVG GPRESSAVG
ENERGY: 50000 0.1293 2.0893 2.1996 0.0000 -23471.9772 4118.3446 0.0000 0.0000 580.8177 -18768.3967 59.7895 -19349.2144 -18767.3422 59.7895 574.1531 633.1852 47159.8111 574.1531 633.1852
ENERGY: 55000 0.9135 3.1532 2.6842 0.0000 -23068.5259 3986.5854 0.0000 0.0000 869.9138 -18205.2757 89.5491 -19075.1896 -18202.9855 87.1268 528.9272 584.7712 47351.6944 4.7137 4.8901
ENERGY: 60000 0.9029 2.4537 3.0274 0.0000 -22909.3751 3817.2257 0.0000 0.0000 868.3331 -18217.4323 89.3863 -19085.7654 -18215.5935 90.4892 -391.1410 -309.7144 47563.2473 0.9965 0.9766
ENERGY: 65000 1.0530 1.9192 2.8469 0.0000 -23076.6584 3952.6491 0.0000 0.0000 882.5160 -18235.6742 90.8463 -19118.1902 -18233.3295 90.1008 333.0315 402.6618 47124.9481 5.4835 5.1895
ENERGY: 70000 0.7450 4.3458 3.0322 0.0000 -23118.3643 3950.8321 0.0000 0.0000 852.6474 -18306.7617 87.7716 -19159.4091 -18305.2780 89.8486 308.5687 338.4149 47143.5483 1.5822 1.7058
ENERGY: 75000 0.5327 1.9676 2.8107 0.0000 -23179.8837 3989.0073 0.0000 0.0000 869.1725 -18316.3930 89.4727 -19185.5655 -18314.7378 90.1785 454.9389 514.9031 47006.6621 6.7442 6.4185
TCL: Running 25000 steps at 120 kelvin.
TCL: Setting parameter langevinTemp to 120
TCL: Running for 25000 steps
ETITLE: TS BOND ANGLE DIHED IMPRP ELECT VDW BOUNDARY MISC KINETIC TOTAL TEMP POTENTIAL TOTAL3 TEMPAVG PRESSURE GPRESSURE VOLUME PRESSAVG GPRESSAVG
ENERGY: 75000 0.5327 1.9676 2.8107 0.0000 -23179.8837 3989.0073 0.0000 0.0000 868.7342 -18316.8312 89.4276 -19185.5655 -18315.1287 89.4276 455.7841 514.5831 47006.6621 455.7841 514.5831
ENERGY: 80000 0.5050 4.1919 2.8533 0.0000 -22558.8850 3713.2829 0.0000 0.0000 1187.4156 -17650.6363 122.2327 -18838.0519 -17647.7226 116.8088 -338.3216 -281.0813 47543.8282 4.9523 4.9827
ENERGY: 85000 1.0284 3.8867 2.4969 0.0000 -22737.2421 3877.9375 0.0000 0.0000 1153.6796 -17698.2130 118.7599 -18851.8925 -17695.7238 120.1512 674.2166 709.6947 47113.2549 2.0328 2.3589
ENERGY: 90000 0.8946 2.6260 3.5442 0.0000 -22778.8177 3908.4706 0.0000 0.0000 1156.1910 -17707.0914 119.0185 -18863.2823 -17704.4821 119.8139 756.2151 814.7382 46924.1532 6.8793 6.8988
ENERGY: 95000 1.8762 2.1136 3.8921 0.0000 -22665.5803 3798.4946 0.0000 0.0000 1161.7863 -17697.4175 119.5945 -18859.2039 -17695.8811 120.5858 316.5577 367.9574 46884.8128 1.1796 1.0881
ENERGY: 100000 0.7801 2.6513 2.8404 0.0000 -22622.6101 3741.0993 0.0000 0.0000 1135.1476 -17740.0913 116.8523 -18875.2390 -17738.5418 119.7355 -142.7356 -82.4443 47234.3837 0.9066 0.7511
TCL: Running 25000 steps at 150 kelvin.
TCL: Setting parameter langevinTemp to 150
TCL: Running for 25000 steps
ETITLE: TS BOND ANGLE DIHED IMPRP ELECT VDW BOUNDARY MISC KINETIC TOTAL TEMP POTENTIAL TOTAL3 TEMPAVG PRESSURE GPRESSURE VOLUME PRESSAVG GPRESSAVG
ENERGY: 100000 0.7801 2.6513 2.8404 0.0000 -22622.6101 3741.0993 0.0000 0.0000 1134.5464 -17740.6926 116.7904 -18875.2390 -17738.5350 116.7904 -138.0438 -83.6216 47234.3837 -138.0438 -83.6216
ENERGY: 105000 1.5500 1.9574 2.5630 0.0000 -22168.5203 3646.4033 0.0000 0.0000 1484.7549 -17031.2917 152.8409 -18516.0466 -17026.9877 147.0691 143.5398 186.8371 47532.8437 1.2333 1.6371
ENERGY: 110000 1.4172 3.0632 3.3689 0.0000 -22308.8063 3706.2585 0.0000 0.0000 1488.4605 -17106.2381 153.2223 -18594.6986 -17104.4682 150.0058 333.0816 358.3361 47320.8041 2.6427 2.5680
ENERGY: 115000 0.2316 4.6195 3.1221 0.0000 -22226.8668 3638.5862 0.0000 0.0000 1449.3179 -17130.9896 149.1930 -18580.3074 -17127.0571 149.7276 -64.5218 -17.6676 47501.0295 4.7711 4.2230
ENERGY: 120000 1.3230 2.6018 3.8187 0.0000 -22302.6206 3705.6584 0.0000 0.0000 1494.9963 -17094.2223 153.8951 -18589.2187 -17091.3123 149.3538 341.6266 408.5743 47340.8320 0.4252 0.5682
ENERGY: 125000 2.3463 4.7719 3.2817 0.0000 -22047.8581 3494.7243 0.0000 0.0000 1437.9594 -17104.7745 148.0237 -18542.7339 -17101.4757 150.0861 -916.5178 -859.7966 47823.4699 -0.2001 -0.1377
TCL: Running 50000 steps at 180 kelvin.
TCL: Setting parameter langevinTemp to 180
TCL: Running for 50000 steps
ETITLE: TS BOND ANGLE DIHED IMPRP ELECT VDW BOUNDARY MISC KINETIC TOTAL TEMP POTENTIAL TOTAL3 TEMPAVG PRESSURE GPRESSURE VOLUME PRESSAVG GPRESSAVG
ENERGY: 125000 2.3463 4.7719 3.2817 0.0000 -22047.8581 3494.7243 0.0000 0.0000 1437.2103 -17105.5236 147.9466 -18542.7339 -17102.9962 147.9466 -920.7877 -859.3229 47823.4699 -920.7877 -859.3229
ENERGY: 135000 1.2936 5.5631 3.7004 0.0000 -21610.3480 3451.8307 0.0000 0.0000 1767.2291 -16380.7311 181.9188 -18147.9603 -16376.5920 180.4456 -351.2568 -321.0475 48255.9566 4.6771 4.5417
ENERGY: 145000 2.7032 3.9572 4.9043 0.0000 -21781.3557 3579.6891 0.0000 0.0000 1726.7293 -16463.3727 177.7498 -18190.1020 -16460.3484 180.9314 372.2235 411.3975 47846.2368 3.7091 4.6234
ENERGY: 155000 2.2695 5.5268 4.1372 0.0000 -21745.1008 3529.5899 0.0000 0.0000 1725.3199 -16478.2575 177.6047 -18203.5774 -16473.3224 179.6328 212.8800 225.7310 47782.4706 1.1807 1.4234
ENERGY: 165000 0.8452 5.9885 4.7751 0.0000 -21662.0102 3391.0341 0.0000 0.0000 1706.8933 -16552.4739 175.7078 -18259.3672 -16548.8280 178.9005 -674.0901 -586.1600 47897.4157 4.2666 4.4203
ENERGY: 175000 1.0289 4.6134 3.8314 0.0000 -21807.8480 3593.3259 0.0000 0.0000 1767.4641 -16437.5844 181.9430 -18205.0485 -16433.2355 179.9949 614.0347 663.7470 47320.7301 -1.5067 -1.1962
TCL: Running 50000 steps at 210 kelvin.
TCL: Setting parameter langevinTemp to 210
TCL: Running for 50000 steps
ETITLE: TS BOND ANGLE DIHED IMPRP ELECT VDW BOUNDARY MISC KINETIC TOTAL TEMP POTENTIAL TOTAL3 TEMPAVG PRESSURE GPRESSURE VOLUME PRESSAVG GPRESSAVG
ENERGY: 175000 1.0289 4.6134 3.8314 0.0000 -21807.8480 3593.3259 0.0000 0.0000 1766.5668 -16438.4817 181.8506 -18205.0485 -16434.8374 181.8506 604.7115 663.0499 47320.7301 604.7115 663.0499
ENERGY: 185000 1.1342 8.0891 2.5927 0.0000 -20554.3358 3113.2820 0.0000 0.0000 2071.1856 -15358.0521 213.2081 -17429.2377 -15353.6733 209.4838 -359.9764 -313.3165 48473.8271 4.7343 4.3235
ENERGY: 195000 2.0813 3.6202 3.2250 0.0000 -20631.8760 3150.7666 0.0000 0.0000 2061.6098 -15410.5731 212.2224 -17472.1829 -15408.1713 210.1193 -122.7010 -66.5281 47936.8528 3.8056 3.5112
ENERGY: 205000 1.3446 6.1445 5.6825 0.0000 -20561.7670 3098.6493 0.0000 0.0000 2044.2203 -15405.7259 210.4323 -17449.9462 -15401.3680 211.4879 -384.9498 -365.8575 48031.1747 1.1178 1.3568
ENERGY: 215000 2.9915 4.6422 2.7080 0.0000 -20654.8098 3170.2147 0.0000 0.0000 2010.0761 -15464.1772 206.9175 -17474.2534 -15458.3998 210.6047 188.8323 282.4167 47264.6796 1.2844 1.2986
ENERGY: 225000 2.6231 3.4413 4.9679 0.0000 -20603.7516 3158.9014 0.0000 0.0000 2025.9379 -15407.8800 208.5503 -17433.8179 -15402.9305 211.0176 29.1479 105.6488 47653.1498 4.1481 3.8101
TCL: Running 50000 steps at 240 kelvin.
TCL: Setting parameter langevinTemp to 240
TCL: Running for 50000 steps
ETITLE: TS BOND ANGLE DIHED IMPRP ELECT VDW BOUNDARY MISC KINETIC TOTAL TEMP POTENTIAL TOTAL3 TEMPAVG PRESSURE GPRESSURE VOLUME PRESSAVG GPRESSAVG
ENERGY: 225000 2.6231 3.4413 4.9679 0.0000 -20603.7516 3158.9014 0.0000 0.0000 2024.9481 -15408.8698 208.4484 -17433.8179 -15405.6448 208.4484 32.5475 105.0032 47653.1498 32.5475 105.0032
ENERGY: 235000 0.9798 3.2473 3.9005 0.0000 -19481.0954 2729.7384 0.0000 0.0000 2351.6762 -14391.5532 242.0819 -16743.2295 -14385.4662 240.8388 -628.6142 -568.0678 48492.6535 4.2965 4.4404
ENERGY: 245000 1.8831 6.0682 5.2806 0.0000 -19490.7192 2774.4196 0.0000 0.0000 2372.5990 -14330.4688 244.2357 -16703.0678 -14325.4814 240.7694 -273.2388 -215.1781 48158.1236 6.0827 5.7591
ENERGY: 255000 3.6598 5.8759 3.0506 0.0000 -19507.2426 2753.0329 0.0000 0.0000 2325.0008 -14416.6226 239.3359 -16741.6233 -14412.0964 240.9539 -469.9816 -388.3577 48056.4416 0.9005 0.7547
ENERGY: 265000 2.7080 3.4888 5.2609 0.0000 -19714.3171 2983.5501 0.0000 0.0000 2289.8019 -14429.5073 235.7125 -16719.3093 -14425.5519 239.1714 623.5458 716.2037 47944.4918 3.9939 3.5954
ENERGY: 275000 2.8070 4.2217 4.1746 0.0000 -19532.9860 2801.0722 0.0000 0.0000 2264.3510 -14456.3595 233.0926 -16720.7105 -14450.3396 239.0920 -167.8278 -95.4562 47947.2368 4.7034 4.3731
TCL: Running 50000 steps at 270 kelvin.
TCL: Setting parameter langevinTemp to 270
TCL: Running for 50000 steps
ETITLE: TS BOND ANGLE DIHED IMPRP ELECT VDW BOUNDARY MISC KINETIC TOTAL TEMP POTENTIAL TOTAL3 TEMPAVG PRESSURE GPRESSURE VOLUME PRESSAVG GPRESSAVG
ENERGY: 275000 2.8070 4.2217 4.1746 0.0000 -19532.9860 2801.0722 0.0000 0.0000 2263.2047 -14457.5059 232.9746 -16720.7105 -14454.0113 232.9746 -179.3285 -94.2067 47947.2368 -179.3285 -94.2067
ENERGY: 285000 2.1932 7.3247 2.5300 0.0000 -18641.1811 2663.5491 0.0000 0.0000 2585.0413 -13380.5428 266.1045 -15965.5841 -13375.6360 269.4760 464.2579 573.9086 48789.7956 8.2857 8.1085
ENERGY: 295000 1.8262 6.1924 3.4228 0.0000 -18613.5173 2611.6911 0.0000 0.0000 2640.8768 -13349.5080 271.8522 -15990.3848 -13340.2222 270.3054 289.5729 346.3197 49067.0093 2.9696 3.0317
ENERGY: 305000 3.3756 4.0618 4.1754 0.0000 -18825.5482 2677.6567 0.0000 0.0000 2660.4821 -13475.7968 273.8704 -16136.2789 -13469.5505 269.7283 340.6887 388.4382 48807.8283 2.8936 2.9327
ENERGY: 315000 1.0989 3.9899 6.3416 0.0000 -18526.8151 2508.1997 0.0000 0.0000 2564.3381 -13442.8468 263.9733 -16007.1849 -13438.3342 272.1831 -397.1387 -334.4503 48860.2146 2.3998 1.5601
ENERGY: 325000 3.4263 6.2047 5.6129 0.0000 -18542.3238 2553.1921 0.0000 0.0000 2659.7404 -13314.1474 273.7941 -15973.8878 -13308.7592 271.0428 -233.4398 -150.7703 49363.7061 2.0082 2.0597
TCL: Running 1000000 steps at 300 kelvin.
TCL: Setting parameter langevinTemp to 300
TCL: Running for 1000000 steps
ETITLE: TS BOND ANGLE DIHED IMPRP ELECT VDW BOUNDARY MISC KINETIC TOTAL TEMP POTENTIAL TOTAL3 TEMPAVG PRESSURE GPRESSURE VOLUME PRESSAVG GPRESSAVG
ENERGY: 325000 3.4263 6.2047 5.6129 0.0000 -18542.3238 2553.1921 0.0000 0.0000 2658.4492 -13315.4386 273.6611 -15973.8878 -13311.3233 273.6611 -227.9942 -150.2949 49363.7061 -227.9942 -150.2949
ENERGY: 525000 5.8113 6.9799 7.8231 0.0000 -17547.7000 2202.2977 0.0000 0.0000 2982.0675 -12342.7204 306.9745 -15324.7879 -12335.3697 303.7422 -921.3963 -785.0186 51104.0328 1.1671 1.4850
ENERGY: 725000 2.7829 8.1798 9.1242 0.0000 -17790.2008 2431.9668 0.0000 0.0000 2868.0605 -12470.0866 295.2386 -15338.1471 -12464.1007 301.2553 178.8093 289.4768 50434.4581 1.9646 1.8716
ENERGY: 925000 3.7045 7.8058 3.8195 0.0000 -17893.7072 2406.9240 0.0000 0.0000 2830.3014 -12641.1520 291.3516 -15471.4534 -12633.4860 300.3507 -83.6095 -29.9430 50499.1767 2.6928 2.9424
ENERGY: 1125000 2.9591 6.1341 3.3430 0.0000 -17796.1524 2370.7759 0.0000 0.0000 2883.3657 -12529.5746 296.8141 -15412.9403 -12525.8221 299.3763 -146.5213 -81.0019 50134.5653 1.9299 0.9704
ENERGY: 1325000 1.6812 4.7881 6.7740 0.0000 -17745.8506 2336.2463 0.0000 0.0000 2898.0899 -12498.2712 298.3298 -15396.3611 -12492.4452 301.8964 -335.4718 -260.3578 50339.0998 0.9102 0.4690
TCL: Exiting due to exit command.
