Info: SIMULATION PARAMETERS:
Info: TIMESTEP               2
Info: NUMBER OF STEPS        0
Info: STEPS PER CYCLE        10
Info: PERIODIC CELL BASIS 1  36.005 0 0
Info: PERIODIC CELL BASIS 2  0 35.779 0
Info: PERIODIC CELL BASIS 3  0 0 34.68
Info: PERIODIC CELL CENTER   0 0 0
Info: WRAPPING WATERS AROUND PERIODIC BOUNDARIES ON OUTPUT.
Info: WRAPPING ALL CLUSTERS AROUND PERIODIC BOUNDARIES ON OUTPUT.
Info: FIRST LDB TIMESTEP     50
Info: LAST LDB TIMESTEP     -1
Info: HOM BACKGROUND SCALING 1
Info: PME BACKGROUND SCALING 1
Info: MIN ATOMS PER PATCH    40
Info: EMPTY PATCH LOAD       40 ATOMS
Info: INITIAL TEMPERATURE    300
Info: CENTER OF MASS MOVING INITIALLY? NO
Info: DIELECTRIC             1
Info: EXCLUDE                SCALED ONE-FOUR
Info: 1-4 ELECTROSTATICS SCALED BY 0.833333
Info: MODIFIED 1-4 VDW PARAMETERS WILL BE USED
Info: DCD FILENAME           mobley_2492140_equil.dcd
Info: DCD FREQUENCY          100000
Info: DCD FIRST STEP         100000
Info: DCD FILE WILL CONTAIN UNIT CELL DATA
Info: XST FILENAME           mobley_2492140_equil.xst
Info: XST FREQUENCY          100000
Info: NO VELOCITY DCD OUTPUT
Info: NO FORCE DCD OUTPUT
Info: OUTPUT FILENAME        mobley_2492140_equil
Info: BINARY OUTPUT FILES WILL BE USED
Info: RESTART FILENAME       mobley_2492140_equil.restart
Info: RESTART FREQUENCY      100000
Info: BINARY RESTART FILES WILL BE USED
Info: CUTOFF                 9
Info: PAIRLIST DISTANCE      11
Info: PAIRLIST SHRINK RATE   0.01
Info: PAIRLIST GROW RATE     0.01
Info: PAIRLIST TRIGGER       0.3
Info: PAIRLISTS PER CYCLE    2
Info: PAIRLISTS ENABLED
Info: MARGIN                 8
Info: HYDROGEN GROUP CUTOFF  2.5
Info: PATCH DIMENSION        21.5
Info: ENERGY OUTPUT STEPS    100000
Info: ENERGY EVALUATION STEPS    100000
Info: OUTPUT ENERGY PRECISION 4
Info: CROSSTERM ENERGY INCLUDED IN DIHEDRAL
Info: TIMING OUTPUT STEPS    1000000
Info: PRESSURE OUTPUT STEPS  100000
Info: FIXED ATOMS ACTIVE
Info: LANGEVIN DYNAMICS ACTIVE
Info: LANGEVIN TEMPERATURE   30
Info: LANGEVIN USING BBK INTEGRATOR
Info: LANGEVIN DAMPING COEFFICIENT IS 1 INVERSE PS
Info: LANGEVIN DYNAMICS APPLIED TO HYDROGENS
Info: LANGEVIN PISTON PRESSURE CONTROL ACTIVE
Info:        TARGET PRESSURE IS 1.01325 BAR
Info:     OSCILLATION PERIOD IS 50 FS
Info:             DECAY TIME IS 25 FS
Info:     PISTON TEMPERATURE IS 300 K
Info:       PRESSURE CONTROL IS GROUP-BASED
Info:    INITIAL STRAIN RATE IS 0 0 0
Info:       CELL FLUCTUATION IS ISOTROPIC
Info: PARTICLE MESH EWALD (PME) ACTIVE
Info: PME TOLERANCE               1e-06
Info: PME EWALD COEFFICIENT       0.348832
Info: PME INTERPOLATION ORDER     4
Info: PME GRID DIMENSIONS         40 36 36
Info: PME MAXIMUM GRID SPACING    1
Info: FULL ELECTROSTATIC EVALUATION FREQUENCY      2
Info: USING VERLET I (r-RESPA) MTS SCHEME.
Info: C1 SPLITTING OF LONG RANGE ELECTROSTATICS
Info: PLACING ATOMS IN PATCHES BY HYDROGEN GROUPS
Info: RIGID BONDS TO HYDROGEN : ALL
Info:         ERROR TOLERANCE : 1e-08
Info:          MAX ITERATIONS : 100
Info: RIGID WATER USING SETTLE ALGORITHM
Info: RANDOM NUMBER SEED     1741933524
Info: USE HYDROGEN BONDS?    NO
Info: Using AMBER format force field!
Info: AMBER PARM FILE        mobley_2492140.prmtop
Info: COORDINATE PDB         mobley_2492140.pdb
Info: Exclusions will be read from PARM file!
Info: SCNB (VDW SCALING)     2
Info: USING ARITHMETIC MEAN TO COMBINE L-J SIGMA PARAMETERS
Info: BINARY COORDINATES     mobley_2492140_min.coor
Info: SUMMARY OF PARAMETERS:
Info: 5 BONDS
Info: 4 ANGLES
Info:   4 HARMONIC
Info:   0 COSINE-BASED
Info: 2 DIHEDRAL
Info: 0 IMPROPER
Info: 0 CROSSTERM
Info: 0 VDW
Info: 15 VDW_PAIRS
Info: 0 NBTHOLE_PAIRS
Info: STRUCTURE SUMMARY:
Info: 2936 ATOMS
Info: 2935 BONDS
Info: 12 ANGLES
Info: 9 DIHEDRALS
Info: 0 IMPROPERS
Info: 0 CROSSTERMS
Info: 2956 EXCLUSIONS
Info: 8 FIXED ATOMS
Info: 2929 RIGID BONDS
Info: 1 RIGID BONDS BETWEEN FIXED ATOMS
Info: 5856 DEGREES OF FREEDOM
Info: 983 HYDROGEN GROUPS
Info: 3 ATOMS IN LARGEST HYDROGEN GROUP
Info: 983 MIGRATION GROUPS
Info: 3 ATOMS IN LARGEST MIGRATION GROUP
Info: 7 HYDROGEN GROUPS WITH ALL ATOMS FIXED
Info: TOTAL MASS = 17785.9 amu
Info: TOTAL CHARGE = 0 e
Info: MASS DENSITY = 0.661096 g/cm^3
Info: ATOM DENSITY = 0.0657182 atoms/A^3
Info: ADDED 0 IMPLICIT EXCLUSIONS
Info: NONBONDED TABLE R-SQUARED SPACING: 0.0625
Info: NONBONDED TABLE SIZE: 705 POINTS
Info: REMOVING COM VELOCITY 0.0287493 -0.10411 -0.00671148
TCL: Running for 100000 steps
ETITLE: TS BOND ANGLE DIHED IMPRP ELECT VDW BOUNDARY MISC KINETIC TOTAL TEMP POTENTIAL TOTAL3 TEMPAVG PRESSURE GPRESSURE VOLUME PRESSAVG GPRESSAVG
ENERGY: 0 0.0000 0.0000 0.0000 0.0000 -13612.3112 2424.4303 0.0000 0.0000 1754.5865 -9433.2944 301.5533 -11187.8809 -9432.9135 301.5533 652.0520 679.9162 44675.5700 652.0520 679.9162
ENERGY: 100000 0.0000 0.0000 0.0000 0.0000 -14338.8597 2591.9462 0.0000 0.0000 177.7633 -11569.1502 30.5514 -11746.9135 -11568.7952 30.9013 990.3663 1048.2325 28471.1813 3.1018 3.0719
TCL: Running 100000 steps at 60 kelvin.
TCL: Setting parameter langevinTemp to 60
TCL: Running for 100000 steps
ETITLE: TS BOND ANGLE DIHED IMPRP ELECT VDW BOUNDARY MISC KINETIC TOTAL TEMP POTENTIAL TOTAL3 TEMPAVG PRESSURE GPRESSURE VOLUME PRESSAVG GPRESSAVG
ENERGY: 100000 0.0000 0.0000 0.0000 0.0000 -14338.8597 2591.9462 0.0000 0.0000 177.6791 -11569.2344 30.5370 -11746.9135 -11568.8776 30.5370 988.6064 1048.2048 28471.1813 988.6064 1048.2048
ENERGY: 200000 0.0000 0.0000 0.0000 0.0000 -14222.6225 2556.0555 0.0000 0.0000 349.9926 -11316.5743 60.1517 -11666.5669 -11315.8190 59.9101 1106.6535 1155.9152 28356.4759 5.0473 5.0243
TCL: Running 100000 steps at 90 kelvin.
TCL: Setting parameter langevinTemp to 90
TCL: Running for 100000 steps
ETITLE: TS BOND ANGLE DIHED IMPRP ELECT VDW BOUNDARY MISC KINETIC TOTAL TEMP POTENTIAL TOTAL3 TEMPAVG PRESSURE GPRESSURE VOLUME PRESSAVG GPRESSAVG
ENERGY: 200000 0.0000 0.0000 0.0000 0.0000 -14222.6225 2556.0555 0.0000 0.0000 349.8191 -11316.7478 60.1219 -11666.5669 -11316.2587 60.1219 1097.0257 1156.1177 28356.4759 1097.0257 1156.1177
ENERGY: 300000 0.0000 0.0000 0.0000 0.0000 -13922.5052 2367.9321 0.0000 0.0000 529.7057 -11024.8674 91.0383 -11554.5731 -11023.8919 89.9063 -207.0073 -142.9084 28903.3964 4.8589 4.8857
TCL: Running 100000 steps at 120 kelvin.
TCL: Setting parameter langevinTemp to 120
TCL: Running for 100000 steps
ETITLE: TS BOND ANGLE DIHED IMPRP ELECT VDW BOUNDARY MISC KINETIC TOTAL TEMP POTENTIAL TOTAL3 TEMPAVG PRESSURE GPRESSURE VOLUME PRESSAVG GPRESSAVG
ENERGY: 300000 0.0000 0.0000 0.0000 0.0000 -13922.5052 2367.9321 0.0000 0.0000 529.4549 -11025.1182 90.9952 -11554.5731 -11023.9597 90.9952 -211.4835 -143.8424 28903.3964 -211.4835 -143.8424
ENERGY: 400000 0.0000 0.0000 0.0000 0.0000 -13842.8439 2410.2585 0.0000 0.0000 726.2255 -10706.3600 124.8133 -11432.5854 -10704.2939 120.1053 745.2558 768.7209 28668.0477 5.2091 5.1328
TCL: Running 100000 steps at 150 kelvin.
TCL: Setting parameter langevinTemp to 150
TCL: Running for 100000 steps
ETITLE: TS BOND ANGLE DIHED IMPRP ELECT VDW BOUNDARY MISC KINETIC TOTAL TEMP POTENTIAL TOTAL3 TEMPAVG PRESSURE GPRESSURE VOLUME PRESSAVG GPRESSAVG
ENERGY: 400000 0.0000 0.0000 0.0000 0.0000 -13842.8439 2410.2585 0.0000 0.0000 725.8974 -10706.6880 124.7569 -11432.5854 -10705.3216 124.7569 719.0848 770.0986 28668.0477 719.0848 770.0986
ENERGY: 500000 0.0000 0.0000 0.0000 0.0000 -13482.3461 2209.8007 0.0000 0.0000 867.7577 -10404.7877 149.1378 -11272.5454 -10404.5455 150.0933 -385.7019 -369.1692 29068.5260 3.8882 3.9368
TCL: Running 100000 steps at 180 kelvin.
TCL: Setting parameter langevinTemp to 180
TCL: Running for 100000 steps
ETITLE: TS BOND ANGLE DIHED IMPRP ELECT VDW BOUNDARY MISC KINETIC TOTAL TEMP POTENTIAL TOTAL3 TEMPAVG PRESSURE GPRESSURE VOLUME PRESSAVG GPRESSAVG
ENERGY: 500000 0.0000 0.0000 0.0000 0.0000 -13482.3461 2209.8007 0.0000 0.0000 867.3100 -10405.2354 149.0609 -11272.5454 -10403.3071 149.0609 -426.6252 -370.9331 29068.5260 -426.6252 -370.9331
ENERGY: 600000 0.0000 0.0000 0.0000 0.0000 -12987.0561 2069.6415 0.0000 0.0000 1060.4592 -9856.9554 182.2566 -10917.4146 -9854.6994 180.1955 -6.5149 87.3089 28515.8365 2.8068 2.7658
TCL: Running 100000 steps at 210 kelvin.
TCL: Setting parameter langevinTemp to 210
TCL: Running for 100000 steps
ETITLE: TS BOND ANGLE DIHED IMPRP ELECT VDW BOUNDARY MISC KINETIC TOTAL TEMP POTENTIAL TOTAL3 TEMPAVG PRESSURE GPRESSURE VOLUME PRESSAVG GPRESSAVG
ENERGY: 600000 0.0000 0.0000 0.0000 0.0000 -12987.0561 2069.6415 0.0000 0.0000 1059.9160 -9857.4986 182.1633 -10917.4146 -9855.6053 182.1633 5.1418 88.0191 28515.8365 5.1418 88.0191
ENERGY: 700000 0.0000 0.0000 0.0000 0.0000 -12269.1057 1779.0406 0.0000 0.0000 1211.0362 -9279.0289 208.1356 -10490.0651 -9276.4385 210.0512 -956.2957 -885.5531 28849.3795 3.7618 3.7620
TCL: Running 100000 steps at 240 kelvin.
TCL: Setting parameter langevinTemp to 240
TCL: Running for 100000 steps
ETITLE: TS BOND ANGLE DIHED IMPRP ELECT VDW BOUNDARY MISC KINETIC TOTAL TEMP POTENTIAL TOTAL3 TEMPAVG PRESSURE GPRESSURE VOLUME PRESSAVG GPRESSAVG
ENERGY: 700000 0.0000 0.0000 0.0000 0.0000 -12269.1057 1779.0406 0.0000 0.0000 1210.3985 -9279.6666 208.0260 -10490.0651 -9277.3229 208.0260 -970.2540 -885.4570 28849.3795 -970.2540 -885.4570
ENERGY: 800000 0.0000 0.0000 0.0000 0.0000 -11716.0805 1671.7112 0.0000 0.0000 1393.3312 -8651.0380 239.4659 -10044.3692 -8648.4126 239.4822 -290.7546 -218.9987 29115.5007 3.6631 3.7672
TCL: Running 100000 steps at 270 kelvin.
TCL: Setting parameter langevinTemp to 270
TCL: Running for 100000 steps
ETITLE: TS BOND ANGLE DIHED IMPRP ELECT VDW BOUNDARY MISC KINETIC TOTAL TEMP POTENTIAL TOTAL3 TEMPAVG PRESSURE GPRESSURE VOLUME PRESSAVG GPRESSAVG
ENERGY: 800000 0.0000 0.0000 0.0000 0.0000 -11716.0805 1671.7112 0.0000 0.0000 1392.6496 -8651.7196 239.3488 -10044.3692 -8649.6349 239.3488 -306.7180 -220.8429 29115.5007 -306.7180 -220.8429
ENERGY: 900000 0.0000 0.0000 0.0000 0.0000 -11270.6806 1598.3707 0.0000 0.0000 1551.6453 -8120.6646 266.6747 -9672.3100 -8116.5458 269.1675 240.2614 311.9716 29570.8198 4.5681 4.7352
TCL: Running 1000000 steps at 300 kelvin.
TCL: Setting parameter langevinTemp to 300
TCL: Running for 1000000 steps
ETITLE: TS BOND ANGLE DIHED IMPRP ELECT VDW BOUNDARY MISC KINETIC TOTAL TEMP POTENTIAL TOTAL3 TEMPAVG PRESSURE GPRESSURE VOLUME PRESSAVG GPRESSAVG
ENERGY: 900000 0.0000 0.0000 0.0000 0.0000 -11270.6806 1598.3707 0.0000 0.0000 1550.8431 -8121.4669 266.5368 -9672.3100 -8119.2133 266.5368 226.8894 311.6903 29570.8198 226.8894 311.6903
ENERGY: 1100000 0.0000 0.0000 0.0000 0.0000 -10616.6492 1359.8229 0.0000 0.0000 1738.7998 -7518.0265 298.8401 -9256.8262 -7513.3431 300.6520 -552.7755 -469.4885 30447.4529 4.9938 4.8416
ENERGY: 1300000 0.0000 0.0000 0.0000 0.0000 -10675.6328 1403.4796 0.0000 0.0000 1732.9527 -7539.2005 297.8352 -9272.1532 -7536.4440 300.8871 -427.3651 -356.1050 30669.7291 3.8446 3.8697
ENERGY: 1500000 0.0000 0.0000 0.0000 0.0000 -10787.8068 1480.0423 0.0000 0.0000 1752.6057 -7555.1588 301.2129 -9307.7645 -7551.2145 300.5846 131.6402 183.0920 30333.3537 1.7479 1.7600
ENERGY: 1700000 0.0000 0.0000 0.0000 0.0000 -10671.5773 1377.7010 0.0000 0.0000 1736.7295 -7557.1468 298.4843 -9293.8763 -7553.9932 299.9070 -705.9753 -611.9461 30454.0647 2.8017 2.6896
ENERGY: 1900000 0.0000 0.0000 0.0000 0.0000 -10671.8881 1423.4295 0.0000 0.0000 1801.9260 -7446.5326 309.6893 -9248.4586 -7442.6302 299.8592 -38.4673 98.9083 30027.4591 4.1085 4.1124
TCL: Exiting due to exit command.
