Info: SIMULATION PARAMETERS:
Info: TIMESTEP               2
Info: NUMBER OF STEPS        0
Info: STEPS PER CYCLE        10
Info: PERIODIC CELL BASIS 1  36.281 0 0
Info: PERIODIC CELL BASIS 2  0 34.1 0
Info: PERIODIC CELL BASIS 3  0 0 36.199
Info: PERIODIC CELL CENTER   0 0 0
Info: WRAPPING WATERS AROUND PERIODIC BOUNDARIES ON OUTPUT.
Info: WRAPPING ALL CLUSTERS AROUND PERIODIC BOUNDARIES ON OUTPUT.
Info: FIRST LDB TIMESTEP     50
Info: LAST LDB TIMESTEP     -1
Info: HOM BACKGROUND SCALING 1
Info: PME BACKGROUND SCALING 1
Info: MIN ATOMS PER PATCH    40
Info: EMPTY PATCH LOAD       40 ATOMS
Info: INITIAL TEMPERATURE    300
Info: CENTER OF MASS MOVING INITIALLY? NO
Info: DIELECTRIC             1
Info: EXCLUDE                SCALED ONE-FOUR
Info: 1-4 ELECTROSTATICS SCALED BY 0.833333
Info: MODIFIED 1-4 VDW PARAMETERS WILL BE USED
Info: DCD FILENAME           mobley_3980099_equil.dcd
Info: DCD FREQUENCY          100000
Info: DCD FIRST STEP         100000
Info: DCD FILE WILL CONTAIN UNIT CELL DATA
Info: XST FILENAME           mobley_3980099_equil.xst
Info: XST FREQUENCY          100000
Info: NO VELOCITY DCD OUTPUT
Info: NO FORCE DCD OUTPUT
Info: OUTPUT FILENAME        mobley_3980099_equil
Info: BINARY OUTPUT FILES WILL BE USED
Info: RESTART FILENAME       mobley_3980099_equil.restart
Info: RESTART FREQUENCY      100000
Info: BINARY RESTART FILES WILL BE USED
Info: CUTOFF                 9
Info: PAIRLIST DISTANCE      11
Info: PAIRLIST SHRINK RATE   0.01
Info: PAIRLIST GROW RATE     0.01
Info: PAIRLIST TRIGGER       0.3
Info: PAIRLISTS PER CYCLE    2
Info: PAIRLISTS ENABLED
Info: MARGIN                 8
Info: HYDROGEN GROUP CUTOFF  2.5
Info: PATCH DIMENSION        21.5
Info: ENERGY OUTPUT STEPS    100000
Info: ENERGY EVALUATION STEPS    100000
Info: OUTPUT ENERGY PRECISION 4
Info: CROSSTERM ENERGY INCLUDED IN DIHEDRAL
Info: TIMING OUTPUT STEPS    1000000
Info: PRESSURE OUTPUT STEPS  100000
Info: LANGEVIN DYNAMICS ACTIVE
Info: LANGEVIN TEMPERATURE   30
Info: LANGEVIN USING BBK INTEGRATOR
Info: LANGEVIN DAMPING COEFFICIENT IS 1 INVERSE PS
Info: LANGEVIN DYNAMICS APPLIED TO HYDROGENS
Info: LANGEVIN PISTON PRESSURE CONTROL ACTIVE
Info:        TARGET PRESSURE IS 1.01325 BAR
Info:     OSCILLATION PERIOD IS 50 FS
Info:             DECAY TIME IS 25 FS
Info:     PISTON TEMPERATURE IS 300 K
Info:       PRESSURE CONTROL IS GROUP-BASED
Info:    INITIAL STRAIN RATE IS 0 0 0
Info:       CELL FLUCTUATION IS ISOTROPIC
Info: PARTICLE MESH EWALD (PME) ACTIVE
Info: PME TOLERANCE               1e-06
Info: PME EWALD COEFFICIENT       0.348832
Info: PME INTERPOLATION ORDER     4
Info: PME GRID DIMENSIONS         40 36 40
Info: PME MAXIMUM GRID SPACING    1
Info: FULL ELECTROSTATIC EVALUATION FREQUENCY      2
Info: USING VERLET I (r-RESPA) MTS SCHEME.
Info: C1 SPLITTING OF LONG RANGE ELECTROSTATICS
Info: PLACING ATOMS IN PATCHES BY HYDROGEN GROUPS
Info: RIGID BONDS TO HYDROGEN : ALL
Info:         ERROR TOLERANCE : 1e-08
Info:          MAX ITERATIONS : 100
Info: RIGID WATER USING SETTLE ALGORITHM
Info: RANDOM NUMBER SEED     1742139880
Info: USE HYDROGEN BONDS?    NO
Info: Using AMBER format force field!
Info: AMBER PARM FILE        mobley_3980099.prmtop
Info: COORDINATE PDB         mobley_3980099.pdb
Info: Exclusions will be read from PARM file!
Info: SCNB (VDW SCALING)     2
Info: USING ARITHMETIC MEAN TO COMBINE L-J SIGMA PARAMETERS
Info: BINARY COORDINATES     mobley_3980099_min.coor
Info: SUMMARY OF PARAMETERS:
Info: 5 BONDS
Info: 3 ANGLES
Info:   3 HARMONIC
Info:   0 COSINE-BASED
Info: 2 DIHEDRAL
Info: 0 IMPROPER
Info: 0 CROSSTERM
Info: 0 VDW
Info: 15 VDW_PAIRS
Info: 0 NBTHOLE_PAIRS
Info: STRUCTURE SUMMARY:
Info: 2988 ATOMS
Info: 2988 BONDS
Info: 18 ANGLES
Info: 30 DIHEDRALS
Info: 0 IMPROPERS
Info: 0 CROSSTERMS
Info: 3027 EXCLUSIONS
Info: 2979 RIGID BONDS
Info: 5985 DEGREES OF FREEDOM
Info: 1001 HYDROGEN GROUPS
Info: 3 ATOMS IN LARGEST HYDROGEN GROUP
Info: 1001 MIGRATION GROUPS
Info: 3 ATOMS IN LARGEST MIGRATION GROUP
Info: TOTAL MASS = 18053.3 amu
Info: TOTAL CHARGE = -1.11759e-08 e
Info: MASS DENSITY = 0.6694 g/cm^3
Info: ATOM DENSITY = 0.0667191 atoms/A^3
Info: ADDED 0 IMPLICIT EXCLUSIONS
Info: NONBONDED TABLE R-SQUARED SPACING: 0.0625
Info: NONBONDED TABLE SIZE: 705 POINTS
Info: REMOVING COM VELOCITY 0.000742698 0.15593 0.098974
TCL: Running for 100000 steps
ETITLE: TS BOND ANGLE DIHED IMPRP ELECT VDW BOUNDARY MISC KINETIC TOTAL TEMP POTENTIAL TOTAL3 TEMPAVG PRESSURE GPRESSURE VOLUME PRESSAVG GPRESSAVG
ENERGY: 0 0.1891 0.1400 0.0091 0.0000 -13855.7809 2455.2353 0.0000 0.0000 1765.6666 -9634.5408 296.9169 -11400.2074 -9634.2033 296.9169 580.0705 615.3117 44784.7548 580.0705 615.3117
ENERGY: 100000 0.1772 0.1757 0.4359 0.0000 -14357.9636 2445.4734 0.0000 0.0000 180.5674 -11731.1340 30.3645 -11911.7014 -11730.3052 30.9222 -309.1825 -245.8485 28821.7599 2.7783 2.7681
TCL: Running 100000 steps at 60 kelvin.
TCL: Setting parameter langevinTemp to 60
TCL: Running for 100000 steps
ETITLE: TS BOND ANGLE DIHED IMPRP ELECT VDW BOUNDARY MISC KINETIC TOTAL TEMP POTENTIAL TOTAL3 TEMPAVG PRESSURE GPRESSURE VOLUME PRESSAVG GPRESSAVG
ENERGY: 100000 0.1772 0.1757 0.4359 0.0000 -14357.9636 2445.4734 0.0000 0.0000 180.4779 -11731.2235 30.3494 -11911.7014 -11730.8195 30.3494 -310.5006 -245.6248 28821.7599 -310.5006 -245.6248
ENERGY: 200000 1.0034 1.2884 0.5834 0.0000 -14049.2738 2245.6548 0.0000 0.0000 352.5648 -11448.1790 59.2878 -11800.7438 -11447.3114 59.7826 -1655.3328 -1598.8548 29097.3045 4.8522 4.8337
TCL: Running 100000 steps at 90 kelvin.
TCL: Setting parameter langevinTemp to 90
TCL: Running for 100000 steps
ETITLE: TS BOND ANGLE DIHED IMPRP ELECT VDW BOUNDARY MISC KINETIC TOTAL TEMP POTENTIAL TOTAL3 TEMPAVG PRESSURE GPRESSURE VOLUME PRESSAVG GPRESSAVG
ENERGY: 200000 1.0034 1.2884 0.5834 0.0000 -14049.2738 2245.6548 0.0000 0.0000 352.3938 -11448.3500 59.2590 -11800.7438 -11447.5389 59.2590 -1664.7374 -1598.6999 29097.3045 -1664.7374 -1598.6999
ENERGY: 300000 0.8303 1.2918 0.5711 0.0000 -14243.9361 2510.3972 0.0000 0.0000 534.4739 -11196.3718 89.8779 -11730.8458 -11195.5056 90.1167 878.1361 896.8704 28834.6955 3.8383 3.7861
TCL: Running 100000 steps at 120 kelvin.
TCL: Setting parameter langevinTemp to 120
TCL: Running for 100000 steps
ETITLE: TS BOND ANGLE DIHED IMPRP ELECT VDW BOUNDARY MISC KINETIC TOTAL TEMP POTENTIAL TOTAL3 TEMPAVG PRESSURE GPRESSURE VOLUME PRESSAVG GPRESSAVG
ENERGY: 300000 0.8303 1.2918 0.5711 0.0000 -14243.9361 2510.3972 0.0000 0.0000 534.2057 -11196.6401 89.8328 -11730.8458 -11195.7482 89.8328 862.8164 896.9158 28834.6955 862.8164 896.9158
ENERGY: 400000 2.2110 0.6613 0.5222 0.0000 -13852.1861 2265.5955 0.0000 0.0000 718.9914 -10864.2046 120.9066 -11583.1960 -10862.1873 120.0768 -589.7044 -517.3537 29118.3551 3.3671 3.4179
TCL: Running 100000 steps at 150 kelvin.
TCL: Setting parameter langevinTemp to 150
TCL: Running for 100000 steps
ETITLE: TS BOND ANGLE DIHED IMPRP ELECT VDW BOUNDARY MISC KINETIC TOTAL TEMP POTENTIAL TOTAL3 TEMPAVG PRESSURE GPRESSURE VOLUME PRESSAVG GPRESSAVG
ENERGY: 400000 2.2110 0.6613 0.5222 0.0000 -13852.1861 2265.5955 0.0000 0.0000 718.6429 -10864.5532 120.8480 -11583.1960 -10863.1821 120.8480 -594.5403 -516.3061 29118.3551 -594.5403 -516.3061
ENERGY: 500000 0.6959 1.1491 1.3803 0.0000 -13762.1759 2320.3679 0.0000 0.0000 897.6909 -10540.8918 150.9569 -11438.5827 -10537.8379 150.0860 695.5122 707.3183 28721.9941 3.1933 3.1862
TCL: Running 100000 steps at 180 kelvin.
TCL: Setting parameter langevinTemp to 180
TCL: Running for 100000 steps
ETITLE: TS BOND ANGLE DIHED IMPRP ELECT VDW BOUNDARY MISC KINETIC TOTAL TEMP POTENTIAL TOTAL3 TEMPAVG PRESSURE GPRESSURE VOLUME PRESSAVG GPRESSAVG
ENERGY: 500000 0.6959 1.1491 1.3803 0.0000 -13762.1759 2320.3679 0.0000 0.0000 897.2497 -10541.3330 150.8827 -11438.5827 -10539.3842 150.8827 659.9534 707.1367 28721.9941 659.9534 707.1367
ENERGY: 600000 1.7018 4.0161 0.7560 0.0000 -13120.7177 2039.5795 0.0000 0.0000 1061.5974 -10013.0668 178.5197 -11074.6642 -10010.4891 179.9998 -760.7098 -718.3755 29424.8697 4.2161 4.1881
TCL: Running 100000 steps at 210 kelvin.
TCL: Setting parameter langevinTemp to 210
TCL: Running for 100000 steps
ETITLE: TS BOND ANGLE DIHED IMPRP ELECT VDW BOUNDARY MISC KINETIC TOTAL TEMP POTENTIAL TOTAL3 TEMPAVG PRESSURE GPRESSURE VOLUME PRESSAVG GPRESSAVG
ENERGY: 600000 1.7018 4.0161 0.7560 0.0000 -13120.7177 2039.5795 0.0000 0.0000 1061.0637 -10013.6005 178.4299 -11074.6642 -10011.4060 178.4299 -793.2419 -719.1876 29424.8697 -793.2419 -719.1876
ENERGY: 700000 2.2326 2.6481 0.9696 0.0000 -12462.1332 1817.0638 0.0000 0.0000 1255.1472 -9384.0719 211.0673 -10639.2191 -9382.2469 210.0348 -827.8284 -706.0337 29199.3725 3.1282 3.2201
TCL: Running 100000 steps at 240 kelvin.
TCL: Setting parameter langevinTemp to 240
TCL: Running for 100000 steps
ETITLE: TS BOND ANGLE DIHED IMPRP ELECT VDW BOUNDARY MISC KINETIC TOTAL TEMP POTENTIAL TOTAL3 TEMPAVG PRESSURE GPRESSURE VOLUME PRESSAVG GPRESSAVG
ENERGY: 700000 2.2326 2.6481 0.9696 0.0000 -12462.1332 1817.0638 0.0000 0.0000 1254.5275 -9384.6916 210.9631 -10639.2191 -9382.0266 210.9631 -790.5237 -706.1593 29199.3725 -790.5237 -706.1593
ENERGY: 800000 1.8796 2.8751 4.8111 0.0000 -12055.5677 1796.0485 0.0000 0.0000 1465.4680 -8784.4854 246.4351 -10249.9534 -8782.1148 239.6841 134.5126 283.6743 29691.3165 3.2252 3.2771
TCL: Running 100000 steps at 270 kelvin.
TCL: Setting parameter langevinTemp to 270
TCL: Running for 100000 steps
ETITLE: TS BOND ANGLE DIHED IMPRP ELECT VDW BOUNDARY MISC KINETIC TOTAL TEMP POTENTIAL TOTAL3 TEMPAVG PRESSURE GPRESSURE VOLUME PRESSAVG GPRESSAVG
ENERGY: 800000 1.8796 2.8751 4.8111 0.0000 -12055.5677 1796.0485 0.0000 0.0000 1464.7656 -8785.1878 246.3170 -10249.9534 -8783.0231 246.3170 186.3531 283.4135 29691.3165 186.3531 283.4135
ENERGY: 900000 2.1968 2.8027 1.3351 0.0000 -11638.9787 1720.3287 0.0000 0.0000 1579.4784 -8332.8371 265.6072 -9912.3155 -8329.2762 269.0929 707.8062 793.7317 29846.8256 3.6130 3.6554
TCL: Running 1000000 steps at 300 kelvin.
TCL: Setting parameter langevinTemp to 300
TCL: Running for 1000000 steps
ETITLE: TS BOND ANGLE DIHED IMPRP ELECT VDW BOUNDARY MISC KINETIC TOTAL TEMP POTENTIAL TOTAL3 TEMPAVG PRESSURE GPRESSURE VOLUME PRESSAVG GPRESSAVG
ENERGY: 900000 2.1968 2.8027 1.3351 0.0000 -11638.9787 1720.3287 0.0000 0.0000 1578.6868 -8333.6286 265.4741 -9912.3155 -8331.3110 265.4741 716.0444 794.7447 29846.8256 716.0444 794.7447
ENERGY: 1100000 6.6480 1.8736 0.8318 0.0000 -10853.3986 1454.4950 0.0000 0.0000 1778.7453 -7610.8050 299.1162 -9389.5503 -7607.9339 300.7197 -1.7438 91.9666 30694.4320 3.7245 3.5696
ENERGY: 1300000 2.8450 1.9953 1.9843 0.0000 -10677.6182 1286.6762 0.0000 0.0000 1787.0491 -7597.0684 300.5126 -9384.1174 -7595.4774 300.5585 -1494.9184 -1408.9040 31106.6592 1.7660 1.7054
ENERGY: 1500000 4.4088 2.4519 3.3456 0.0000 -10923.7707 1489.0634 0.0000 0.0000 1856.7798 -7567.7211 312.2386 -9424.5009 -7564.8733 299.9174 -161.3007 -90.8992 31189.8176 3.7864 3.8576
ENERGY: 1700000 0.9031 2.4510 3.2479 0.0000 -10783.8851 1418.8993 0.0000 0.0000 1758.5632 -7599.8206 295.7224 -9358.3838 -7597.7761 300.6856 -366.4719 -226.3052 30983.7286 2.9875 2.8864
ENERGY: 1900000 1.3761 1.8849 1.5799 0.0000 -10699.8422 1376.3146 0.0000 0.0000 1794.6773 -7524.0094 301.7954 -9318.6867 -7518.8944 300.0360 -542.2472 -445.1868 31208.3413 2.1251 2.1088
TCL: Exiting due to exit command.
