Info: SIMULATION PARAMETERS:
Info: TIMESTEP               2
Info: NUMBER OF STEPS        0
Info: STEPS PER CYCLE        10
Info: PERIODIC CELL BASIS 1  37.968 0 0
Info: PERIODIC CELL BASIS 2  0 39.303 0
Info: PERIODIC CELL BASIS 3  0 0 38.379
Info: PERIODIC CELL CENTER   0 0 0
Info: WRAPPING WATERS AROUND PERIODIC BOUNDARIES ON OUTPUT.
Info: WRAPPING ALL CLUSTERS AROUND PERIODIC BOUNDARIES ON OUTPUT.
Info: FIRST LDB TIMESTEP     50
Info: LAST LDB TIMESTEP     -1
Info: HOM BACKGROUND SCALING 1
Info: PME BACKGROUND SCALING 1
Info: MIN ATOMS PER PATCH    40
Info: EMPTY PATCH LOAD       40 ATOMS
Info: INITIAL TEMPERATURE    300
Info: CENTER OF MASS MOVING INITIALLY? NO
Info: DIELECTRIC             1
Info: EXCLUDE                SCALED ONE-FOUR
Info: 1-4 ELECTROSTATICS SCALED BY 0.833333
Info: MODIFIED 1-4 VDW PARAMETERS WILL BE USED
Info: DCD FILENAME           mobley_7532833_min.dcd
Info: DCD FREQUENCY          5000
Info: DCD FIRST STEP         5000
Info: DCD FILE WILL CONTAIN UNIT CELL DATA
Info: XST FILENAME           mobley_7532833_min.xst
Info: XST FREQUENCY          5000
Info: NO VELOCITY DCD OUTPUT
Info: NO FORCE DCD OUTPUT
Info: OUTPUT FILENAME        mobley_7532833_min
Info: BINARY OUTPUT FILES WILL BE USED
Info: RESTART FILENAME       mobley_7532833_min.restart
Info: RESTART FREQUENCY      5000
Info: BINARY RESTART FILES WILL BE USED
Info: CUTOFF                 9
Info: PAIRLIST DISTANCE      11
Info: PAIRLIST SHRINK RATE   0.01
Info: PAIRLIST GROW RATE     0.01
Info: PAIRLIST TRIGGER       0.3
Info: PAIRLISTS PER CYCLE    2
Info: PAIRLISTS ENABLED
Info: MARGIN                 8
Info: HYDROGEN GROUP CUTOFF  2.5
Info: PATCH DIMENSION        21.5
Info: ENERGY OUTPUT STEPS    5000
Info: ENERGY EVALUATION STEPS    5000
Info: OUTPUT ENERGY PRECISION 4
Info: CROSSTERM ENERGY INCLUDED IN DIHEDRAL
Info: TIMING OUTPUT STEPS    50000
Info: PRESSURE OUTPUT STEPS  5000
Info: LANGEVIN DYNAMICS ACTIVE
Info: LANGEVIN TEMPERATURE   300
Info: LANGEVIN USING BBK INTEGRATOR
Info: LANGEVIN DAMPING COEFFICIENT IS 1 INVERSE PS
Info: LANGEVIN DYNAMICS APPLIED TO HYDROGENS
Info: LANGEVIN PISTON PRESSURE CONTROL ACTIVE
Info:        TARGET PRESSURE IS 1.01325 BAR
Info:     OSCILLATION PERIOD IS 50 FS
Info:             DECAY TIME IS 25 FS
Info:     PISTON TEMPERATURE IS 300 K
Info:       PRESSURE CONTROL IS GROUP-BASED
Info:    INITIAL STRAIN RATE IS 0 0 0
Info:       CELL FLUCTUATION IS ISOTROPIC
Info: PARTICLE MESH EWALD (PME) ACTIVE
Info: PME TOLERANCE               1e-06
Info: PME EWALD COEFFICIENT       0.348832
Info: PME INTERPOLATION ORDER     4
Info: PME GRID DIMENSIONS         40 40 40
Info: PME MAXIMUM GRID SPACING    1
Info: FULL ELECTROSTATIC EVALUATION FREQUENCY      2
Info: USING VERLET I (r-RESPA) MTS SCHEME.
Info: C1 SPLITTING OF LONG RANGE ELECTROSTATICS
Info: PLACING ATOMS IN PATCHES BY HYDROGEN GROUPS
Info: RIGID BONDS TO HYDROGEN : ALL
Info:         ERROR TOLERANCE : 1e-08
Info:          MAX ITERATIONS : 100
Info: RIGID WATER USING SETTLE ALGORITHM
Info: RANDOM NUMBER SEED     1741392556
Info: USE HYDROGEN BONDS?    NO
Info: Using AMBER format force field!
Info: AMBER PARM FILE        mobley_7532833.prmtop
Info: COORDINATE PDB         mobley_7532833.pdb
Info: Exclusions will be read from PARM file!
Info: SCNB (VDW SCALING)     2
Info: USING ARITHMETIC MEAN TO COMBINE L-J SIGMA PARAMETERS
Info: SUMMARY OF PARAMETERS:
Info: 5 BONDS
Info: 3 ANGLES
Info:   3 HARMONIC
Info:   0 COSINE-BASED
Info: 1 DIHEDRAL
Info: 0 IMPROPER
Info: 0 CROSSTERM
Info: 0 VDW
Info: 21 VDW_PAIRS
Info: 0 NBTHOLE_PAIRS
Info: STRUCTURE SUMMARY:
Info: 4104 ATOMS
Info: 4103 BONDS
Info: 7 ANGLES
Info: 3 DIHEDRALS
Info: 0 IMPROPERS
Info: 0 CROSSTERMS
Info: 4113 EXCLUSIONS
Info: 4101 RIGID BONDS
Info: 8211 DEGREES OF FREEDOM
Info: 1369 HYDROGEN GROUPS
Info: 4 ATOMS IN LARGEST HYDROGEN GROUP
Info: 1369 MIGRATION GROUPS
Info: 4 ATOMS IN LARGEST MIGRATION GROUP
Info: TOTAL MASS = 24650.9 amu
Info: TOTAL CHARGE = 0.000100002 e
Info: MASS DENSITY = 0.714752 g/cm^3
Info: ATOM DENSITY = 0.0716589 atoms/A^3
Info: ADDED 0 IMPLICIT EXCLUSIONS
Info: NONBONDED TABLE R-SQUARED SPACING: 0.0625
Info: NONBONDED TABLE SIZE: 705 POINTS
Info: REMOVING COM VELOCITY -0.194847 0.074517 0.0372883
TCL: Minimizing for 2000 steps
ETITLE: TS BOND ANGLE DIHED IMPRP ELECT VDW BOUNDARY MISC KINETIC TOTAL TEMP POTENTIAL TOTAL3 TEMPAVG PRESSURE GPRESSURE VOLUME PRESSAVG GPRESSAVG
ENERGY: 0 0.0059 0.1121 0.0000 0.0000 -12550.4428 1425.6428 0.0000 0.0000 0.0000 -11124.6819 0.0000 -11124.6819 -11124.6819 0.0000 10772.4354 -15341.0016 57271.3047 10772.4354 -15341.0016
ENERGY: 400 13.6678 0.0878 0.0000 0.0000 -17209.4712 2526.8226 0.0000 0.0000 0.0000 -14668.8930 0.0000 -14668.8930 -14668.8930 0.0000 15576.5023 15677.0039 57271.3047 15576.5023 15677.0039
ENERGY: 800 22.8697 0.4709 0.0000 0.0000 -18067.3554 2930.9571 0.0000 0.0000 0.0000 -15113.0577 0.0000 -15113.0577 -15113.0577 0.0000 17960.8094 18099.1288 57271.3047 17960.8094 18099.1288
ENERGY: 1200 0.3831 0.0995 0.0000 0.0000 -18423.4855 3087.6244 0.0000 0.0000 0.0000 -15335.3785 0.0000 -15335.3785 -15335.3785 0.0000 18789.7049 18900.2286 57271.3047 18789.7049 18900.2286
ENERGY: 1600 2.7337 0.1590 0.0000 0.0000 -18649.0804 3188.6657 0.0000 0.0000 0.0000 -15457.5220 0.0000 -15457.5220 -15457.5220 0.0000 19400.1989 19516.4620 57271.3047 19400.1989 19516.4620
ENERGY: 2000 0.1549 0.0833 0.0000 0.0000 -18783.8444 3253.1314 0.0000 0.0000 0.0000 -15530.4748 0.0000 -15530.4748 -15530.4748 0.0000 19748.3101 19846.5226 57271.3047 19748.3101 19846.5226
TCL: Exiting due to exit command.
Info: NAMD 3.0.1 for Linux-x86_64-multicore
Info: Please visit http://www.ks.uiuc.edu/Research/namd/
Info: for updates, documentation, and support information.
Info: Please cite Phillips et al., J. Chem. Phys. 153:044130 (2020) doi:10.1063/5.0014475
Info: in all publications reporting results obtained with NAMD.
Info: Based on Charm++/Converse 80000 for multicore-linux-x86_64-gcc
Info: Built Mon Oct 14 11:11:06 CDT 2024 by dhardy on athine.ks.uiuc.edu
Info: 1 NAMD  3.0.1  Linux-x86_64-multicore  16    k008  z5358697
Info: Running on 16 processors, 1 nodes, 1 physical nodes.
Info: CPU topology information available.
Info: Charm++/Converse parallel runtime startup completed at 0.00966171 s
Info: 1043.45 MB of memory in use based on /proc/self/stat
Info: Configuration file is mobley_7532833_equil.namd
Info: Working in the current directory /srv/scratch/z5358697/prod_prep_9/7532833
TCL: Running 25000 steps at 30 kelvin.
TCL: Suspending until startup complete.
Info: SIMULATION PARAMETERS:
Info: TIMESTEP               2
Info: NUMBER OF STEPS        0
Info: STEPS PER CYCLE        10
Info: PERIODIC CELL BASIS 1  37.968 0 0
Info: PERIODIC CELL BASIS 2  0 39.303 0
Info: PERIODIC CELL BASIS 3  0 0 38.379
Info: PERIODIC CELL CENTER   0 0 0
Info: WRAPPING WATERS AROUND PERIODIC BOUNDARIES ON OUTPUT.
Info: WRAPPING ALL CLUSTERS AROUND PERIODIC BOUNDARIES ON OUTPUT.
Info: FIRST LDB TIMESTEP     50
Info: LAST LDB TIMESTEP     -1
Info: HOM BACKGROUND SCALING 1
Info: PME BACKGROUND SCALING 1
Info: MIN ATOMS PER PATCH    40
Info: EMPTY PATCH LOAD       40 ATOMS
Info: INITIAL TEMPERATURE    300
Info: CENTER OF MASS MOVING INITIALLY? NO
Info: DIELECTRIC             1
Info: EXCLUDE                SCALED ONE-FOUR
Info: 1-4 ELECTROSTATICS SCALED BY 0.833333
Info: MODIFIED 1-4 VDW PARAMETERS WILL BE USED
Info: DCD FILENAME           mobley_7532833_equil.dcd
Info: DCD FREQUENCY          5000
Info: DCD FIRST STEP         5000
Info: DCD FILE WILL CONTAIN UNIT CELL DATA
Info: XST FILENAME           mobley_7532833_equil.xst
Info: XST FREQUENCY          5000
Info: NO VELOCITY DCD OUTPUT
Info: NO FORCE DCD OUTPUT
Info: OUTPUT FILENAME        mobley_7532833_equil
Info: BINARY OUTPUT FILES WILL BE USED
Info: RESTART FILENAME       mobley_7532833_equil.restart
Info: RESTART FREQUENCY      5000
Info: BINARY RESTART FILES WILL BE USED
Info: CUTOFF                 9
Info: PAIRLIST DISTANCE      11
Info: PAIRLIST SHRINK RATE   0.01
Info: PAIRLIST GROW RATE     0.01
Info: PAIRLIST TRIGGER       0.3
Info: PAIRLISTS PER CYCLE    2
Info: PAIRLISTS ENABLED
Info: MARGIN                 8
Info: HYDROGEN GROUP CUTOFF  2.5
Info: PATCH DIMENSION        21.5
Info: ENERGY OUTPUT STEPS    5000
Info: ENERGY EVALUATION STEPS    5000
Info: OUTPUT ENERGY PRECISION 4
Info: CROSSTERM ENERGY INCLUDED IN DIHEDRAL
Info: TIMING OUTPUT STEPS    50000
Info: PRESSURE OUTPUT STEPS  5000
Info: LANGEVIN DYNAMICS ACTIVE
Info: LANGEVIN TEMPERATURE   30
Info: LANGEVIN USING BBK INTEGRATOR
Info: LANGEVIN DAMPING COEFFICIENT IS 1 INVERSE PS
Info: LANGEVIN DYNAMICS APPLIED TO HYDROGENS
Info: LANGEVIN PISTON PRESSURE CONTROL ACTIVE
Info:        TARGET PRESSURE IS 1.01325 BAR
Info:     OSCILLATION PERIOD IS 50 FS
Info:             DECAY TIME IS 25 FS
Info:     PISTON TEMPERATURE IS 300 K
Info:       PRESSURE CONTROL IS GROUP-BASED
Info:    INITIAL STRAIN RATE IS 0 0 0
Info:       CELL FLUCTUATION IS ISOTROPIC
Info: PARTICLE MESH EWALD (PME) ACTIVE
Info: PME TOLERANCE               1e-06
Info: PME EWALD COEFFICIENT       0.348832
Info: PME INTERPOLATION ORDER     4
Info: PME GRID DIMENSIONS         40 40 40
Info: PME MAXIMUM GRID SPACING    1
Info: FULL ELECTROSTATIC EVALUATION FREQUENCY      2
Info: USING VERLET I (r-RESPA) MTS SCHEME.
Info: C1 SPLITTING OF LONG RANGE ELECTROSTATICS
Info: PLACING ATOMS IN PATCHES BY HYDROGEN GROUPS
Info: RIGID BONDS TO HYDROGEN : ALL
Info:         ERROR TOLERANCE : 1e-08
Info:          MAX ITERATIONS : 100
Info: RIGID WATER USING SETTLE ALGORITHM
Info: RANDOM NUMBER SEED     1741392572
Info: USE HYDROGEN BONDS?    NO
Info: Using AMBER format force field!
Info: AMBER PARM FILE        mobley_7532833.prmtop
Info: COORDINATE PDB         mobley_7532833.pdb
Info: Exclusions will be read from PARM file!
Info: SCNB (VDW SCALING)     2
Info: USING ARITHMETIC MEAN TO COMBINE L-J SIGMA PARAMETERS
Info: BINARY COORDINATES     mobley_7532833_min.coor
Info: SUMMARY OF PARAMETERS:
Info: 5 BONDS
Info: 3 ANGLES
Info:   3 HARMONIC
Info:   0 COSINE-BASED
Info: 1 DIHEDRAL
Info: 0 IMPROPER
Info: 0 CROSSTERM
Info: 0 VDW
Info: 21 VDW_PAIRS
Info: 0 NBTHOLE_PAIRS
Info: STRUCTURE SUMMARY:
Info: 4104 ATOMS
Info: 4103 BONDS
Info: 7 ANGLES
Info: 3 DIHEDRALS
Info: 0 IMPROPERS
Info: 0 CROSSTERMS
Info: 4113 EXCLUSIONS
Info: 4101 RIGID BONDS
Info: 8211 DEGREES OF FREEDOM
Info: 1369 HYDROGEN GROUPS
Info: 4 ATOMS IN LARGEST HYDROGEN GROUP
Info: 1369 MIGRATION GROUPS
Info: 4 ATOMS IN LARGEST MIGRATION GROUP
Info: TOTAL MASS = 24650.9 amu
Info: TOTAL CHARGE = 0.000100002 e
Info: MASS DENSITY = 0.714752 g/cm^3
Info: ATOM DENSITY = 0.0716589 atoms/A^3
Info: ADDED 0 IMPLICIT EXCLUSIONS
Info: NONBONDED TABLE R-SQUARED SPACING: 0.0625
Info: NONBONDED TABLE SIZE: 705 POINTS
Info: REMOVING COM VELOCITY 0.0962519 0.0263925 0.069554
TCL: Running for 25000 steps
ETITLE: TS BOND ANGLE DIHED IMPRP ELECT VDW BOUNDARY MISC KINETIC TOTAL TEMP POTENTIAL TOTAL3 TEMPAVG PRESSURE GPRESSURE VOLUME PRESSAVG GPRESSAVG
ENERGY: 0 0.1549 0.0833 0.0000 0.0000 -18783.8444 3253.1314 0.0000 0.0000 2435.8018 -13094.6731 298.5632 -15530.4748 -13094.1816 298.5632 119.2358 155.5153 57271.3047 119.2358 155.5153
ENERGY: 5000 0.2645 0.0870 0.0000 0.0000 -19815.9152 3483.4804 0.0000 0.0000 252.0661 -16080.0172 30.8965 -16332.0833 -16079.1902 48.4091 133.7661 189.6289 40203.1267 -0.0163 0.4277
ENERGY: 10000 0.0525 0.3543 0.0000 0.0000 -19852.0406 3491.5814 0.0000 0.0000 249.8685 -16110.1839 30.6271 -16360.0524 -16109.7452 30.2948 173.4727 239.4635 40123.0042 -3.6885 -3.7086
ENERGY: 15000 0.2998 0.3343 0.0000 0.0000 -19839.9722 3469.1540 0.0000 0.0000 247.7287 -16122.4555 30.3648 -16370.1842 -16121.7608 30.2440 -16.5353 55.4631 40158.0549 0.0816 0.0492
ENERGY: 20000 0.5809 0.4333 0.0000 0.0000 -19733.6152 3359.0750 0.0000 0.0000 242.0794 -16131.4466 29.6724 -16373.5261 -16131.0494 30.1140 -720.1845 -650.7733 40369.4867 -0.2462 -0.4744
ENERGY: 25000 0.3376 0.1193 0.0000 0.0000 -19912.2903 3538.8773 0.0000 0.0000 242.8448 -16130.1113 29.7662 -16372.9561 -16129.5659 30.1826 508.4416 564.7616 39920.2727 0.6649 0.9594
TCL: Running 25000 steps at 60 kelvin.
TCL: Setting parameter langevinTemp to 60
TCL: Running for 25000 steps
ETITLE: TS BOND ANGLE DIHED IMPRP ELECT VDW BOUNDARY MISC KINETIC TOTAL TEMP POTENTIAL TOTAL3 TEMPAVG PRESSURE GPRESSURE VOLUME PRESSAVG GPRESSAVG
ENERGY: 25000 0.3376 0.1193 0.0000 0.0000 -19912.2903 3538.8773 0.0000 0.0000 242.7267 -16130.2294 29.7517 -16372.9561 -16129.6763 29.7517 502.5669 564.7141 39920.2727 502.5669 564.7141
ENERGY: 30000 0.1861 0.6647 0.0000 0.0000 -19593.2735 3449.6106 0.0000 0.0000 488.4924 -15654.3196 59.8759 -16142.8121 -15653.4039 56.5182 552.5388 616.8797 40168.2493 -0.0302 -0.0245
ENERGY: 35000 0.0935 0.3344 0.0000 0.0000 -19409.5145 3246.3017 0.0000 0.0000 490.1837 -15672.6012 60.0832 -16162.7849 -15671.0269 59.9714 -752.8516 -686.5211 40645.0370 2.0533 2.2739
ENERGY: 40000 0.0992 0.2947 0.0000 0.0000 -19506.0445 3321.6768 0.0000 0.0000 491.2237 -15692.7501 60.2107 -16183.9738 -15690.8533 60.1905 -321.3725 -259.3544 40318.9674 -0.1060 -0.4233
ENERGY: 45000 0.0798 0.3359 0.0000 0.0000 -19589.9904 3400.4536 0.0000 0.0000 511.1349 -15677.9861 62.6513 -16189.1210 -15676.9069 60.0274 167.6658 243.0937 40251.0732 -4.6074 -4.5218
ENERGY: 50000 0.2471 0.6103 0.0000 0.0000 -19643.0269 3447.3697 0.0000 0.0000 495.8184 -15698.9814 60.7739 -16194.7999 -15697.5720 60.2253 497.5352 533.5019 39992.4843 5.3737 4.7484
TCL: Running 25000 steps at 90 kelvin.
TCL: Setting parameter langevinTemp to 90
TCL: Running for 25000 steps
ETITLE: TS BOND ANGLE DIHED IMPRP ELECT VDW BOUNDARY MISC KINETIC TOTAL TEMP POTENTIAL TOTAL3 TEMPAVG PRESSURE GPRESSURE VOLUME PRESSAVG GPRESSAVG
ENERGY: 50000 0.2471 0.6103 0.0000 0.0000 -19643.0269 3447.3697 0.0000 0.0000 495.5767 -15699.2231 60.7443 -16194.7999 -15698.1099 60.7443 474.8784 533.6885 39992.4843 474.8784 533.6885
ENERGY: 55000 0.0132 0.2903 0.0000 0.0000 -19231.6098 3266.3858 0.0000 0.0000 739.8134 -15225.1070 90.6810 -15964.9204 -15223.6229 87.9375 14.2801 49.3185 40313.9313 3.8922 3.8230
ENERGY: 60000 1.8274 0.3300 0.0000 0.0000 -19096.0892 3082.8696 0.0000 0.0000 747.7799 -15263.2823 91.6575 -16011.0621 -15261.5663 89.9630 -1193.8628 -1108.9063 40399.4057 7.7567 8.2597
ENERGY: 65000 1.6613 0.8142 0.0000 0.0000 -19323.7075 3310.8858 0.0000 0.0000 716.0512 -15294.2950 87.7684 -16010.3461 -15292.6111 90.1647 222.9502 298.0792 39817.4819 7.1954 7.0846
ENERGY: 70000 0.8315 0.7656 0.0000 0.0000 -19136.0049 3124.2949 0.0000 0.0000 728.1497 -15281.9631 89.2514 -16010.1128 -15279.2946 90.2677 -996.8371 -947.1627 40196.6783 -0.3281 -0.2064
ENERGY: 75000 0.4230 0.3776 0.0000 0.0000 -19317.0363 3266.2057 0.0000 0.0000 748.2860 -15301.7440 91.7196 -16050.0300 -15299.3107 90.7247 -177.8062 -142.6096 40142.1597 -0.4610 0.0114
TCL: Running 25000 steps at 120 kelvin.
TCL: Setting parameter langevinTemp to 120
TCL: Running for 25000 steps
ETITLE: TS BOND ANGLE DIHED IMPRP ELECT VDW BOUNDARY MISC KINETIC TOTAL TEMP POTENTIAL TOTAL3 TEMPAVG PRESSURE GPRESSURE VOLUME PRESSAVG GPRESSAVG
ENERGY: 75000 0.4230 0.3776 0.0000 0.0000 -19317.0363 3266.2057 0.0000 0.0000 747.9178 -15302.1122 91.6744 -16050.0300 -15300.6095 91.6744 -194.4033 -142.4741 40142.1597 -194.4033 -142.4741
ENERGY: 80000 0.4782 0.6904 0.0000 0.0000 -18961.1494 3139.5267 0.0000 0.0000 985.6242 -14834.8298 120.8108 -15820.4540 -14833.0962 117.4098 -500.8061 -428.8921 40568.1644 2.4739 2.4360
ENERGY: 85000 0.8548 0.9373 0.0000 0.0000 -19025.7561 3209.6641 0.0000 0.0000 984.7714 -14829.5285 120.7063 -15814.3000 -14827.8997 120.5514 157.7321 225.3779 40056.7451 6.4929 6.6051
ENERGY: 90000 0.1373 0.8606 0.0000 0.0000 -18972.3326 3129.3242 0.0000 0.0000 992.3250 -14849.6856 121.6321 -15842.0106 -14847.5667 120.5930 -420.3151 -345.1207 40114.9064 7.1562 6.7406
ENERGY: 95000 0.0742 1.2541 0.0000 0.0000 -19139.5708 3240.3094 0.0000 0.0000 990.0153 -14907.9178 121.3490 -15897.9331 -14905.7041 119.5680 80.7580 122.9514 40191.3000 2.4948 2.3840
ENERGY: 100000 0.2861 1.0296 0.0000 0.0000 -19089.4932 3201.8497 0.0000 0.0000 972.1034 -14914.2245 119.1535 -15886.3278 -14911.9990 119.3831 -127.4173 -60.1060 40033.5462 1.8592 1.4092
TCL: Running 25000 steps at 150 kelvin.
TCL: Setting parameter langevinTemp to 150
TCL: Running for 25000 steps
ETITLE: TS BOND ANGLE DIHED IMPRP ELECT VDW BOUNDARY MISC KINETIC TOTAL TEMP POTENTIAL TOTAL3 TEMPAVG PRESSURE GPRESSURE VOLUME PRESSAVG GPRESSAVG
ENERGY: 100000 0.2861 1.0296 0.0000 0.0000 -19089.4932 3201.8497 0.0000 0.0000 971.6206 -14914.7073 119.0943 -15886.3278 -14912.7591 119.0943 -120.4222 -60.8875 40033.5462 -120.4222 -60.8875
ENERGY: 105000 0.2179 1.3959 0.0000 0.0000 -18781.7155 3207.7725 0.0000 0.0000 1202.5580 -14369.7712 147.4010 -15572.3292 -14367.2804 145.4459 607.1785 654.8819 40299.2604 1.2424 1.6542
ENERGY: 110000 0.1023 0.6084 0.0000 0.0000 -18692.0838 3081.4708 0.0000 0.0000 1213.2590 -14396.6433 148.7126 -15609.9022 -14394.0296 150.5701 -421.0422 -269.0445 40540.9360 -0.9631 -0.7245
ENERGY: 115000 0.0844 0.9507 0.0000 0.0000 -18814.6720 3213.3586 0.0000 0.0000 1263.5444 -14336.7341 154.8762 -15600.2784 -14334.1845 149.8302 585.9683 636.4479 40214.9142 4.1628 4.0745
ENERGY: 120000 0.3904 0.1049 0.0000 0.0000 -18788.7881 3160.4459 0.0000 0.0000 1189.6820 -14438.1649 145.8227 -15627.8469 -14436.0417 150.5717 346.3055 394.2252 40075.2515 6.4767 6.6659
ENERGY: 125000 1.2907 2.6280 0.0000 0.0000 -18651.4396 3004.9146 0.0000 0.0000 1235.4689 -14407.1374 151.4350 -15642.6063 -14404.3027 150.0730 -598.8030 -554.3873 40282.0366 2.9269 2.8143
TCL: Running 50000 steps at 180 kelvin.
TCL: Setting parameter langevinTemp to 180
TCL: Running for 50000 steps
ETITLE: TS BOND ANGLE DIHED IMPRP ELECT VDW BOUNDARY MISC KINETIC TOTAL TEMP POTENTIAL TOTAL3 TEMPAVG PRESSURE GPRESSURE VOLUME PRESSAVG GPRESSAVG
ENERGY: 125000 1.2907 2.6280 0.0000 0.0000 -18651.4396 3004.9146 0.0000 0.0000 1234.8549 -14407.7514 151.3597 -15642.6063 -14405.0794 151.3597 -603.0353 -553.9598 40282.0366 -603.0353 -553.9598
ENERGY: 135000 0.4426 1.4218 0.0000 0.0000 -18341.9872 3098.4177 0.0000 0.0000 1479.4088 -13762.2963 181.3354 -15241.7051 -13761.1576 180.7445 1014.5362 1075.1300 40176.1442 -1.2680 -0.3449
ENERGY: 145000 0.5605 0.6332 0.0000 0.0000 -18203.3001 2970.4061 0.0000 0.0000 1518.3870 -13713.3134 186.1130 -15231.7004 -13709.7420 180.3686 430.0623 506.6466 39949.2383 6.3250 6.7524
ENERGY: 155000 0.5282 0.4171 0.0000 0.0000 -18152.0658 2916.0668 0.0000 0.0000 1464.9764 -13770.0773 179.5664 -15235.0537 -13765.8102 179.9582 263.0339 297.5644 39596.4500 3.8945 4.0371
ENERGY: 165000 0.1151 0.8570 0.0000 0.0000 -18258.2319 2999.2655 0.0000 0.0000 1437.3989 -13820.5954 176.1861 -15257.9942 -13818.5041 179.7598 838.2054 859.1617 39370.6406 7.9883 8.1893
ENERGY: 175000 0.2230 0.6683 0.0000 0.0000 -18194.9324 2877.5044 0.0000 0.0000 1506.1472 -13810.3896 184.6128 -15316.5368 -13807.0400 181.5233 -432.2871 -387.7306 40161.2535 -1.4189 -2.2523
TCL: Running 50000 steps at 210 kelvin.
TCL: Setting parameter langevinTemp to 210
TCL: Running for 50000 steps
ETITLE: TS BOND ANGLE DIHED IMPRP ELECT VDW BOUNDARY MISC KINETIC TOTAL TEMP POTENTIAL TOTAL3 TEMPAVG PRESSURE GPRESSURE VOLUME PRESSAVG GPRESSAVG
ENERGY: 175000 0.2230 0.6683 0.0000 0.0000 -18194.9324 2877.5044 0.0000 0.0000 1505.4094 -13811.1273 184.5223 -15316.5368 -13808.0710 184.5223 -432.9190 -388.2201 40161.2535 -432.9190 -388.2201
ENERGY: 185000 0.3132 0.3971 0.0000 0.0000 -17325.1900 2595.6590 0.0000 0.0000 1728.0419 -13000.7788 211.8110 -14728.8207 -12994.8288 209.2226 -589.2501 -534.8807 40460.2236 1.1434 1.5606
ENERGY: 195000 1.9836 0.9052 0.0000 0.0000 -17146.3809 2503.7009 0.0000 0.0000 1695.3966 -12944.3948 207.8096 -14639.7914 -12942.0485 209.7270 -767.4931 -678.5341 40059.8578 1.1724 1.0801
ENERGY: 205000 0.6004 0.3454 0.0000 0.0000 -17298.4348 2618.6801 0.0000 0.0000 1712.6088 -12966.2001 209.9194 -14678.8089 -12962.4466 210.3180 -308.8195 -182.5813 40347.7623 3.2211 3.0903
ENERGY: 215000 0.1613 3.3496 0.0000 0.0000 -17224.4909 2564.8738 0.0000 0.0000 1708.8956 -12947.2106 209.4642 -14656.1062 -12945.7739 209.1136 -669.1682 -565.6334 40337.0214 7.0897 6.4355
ENERGY: 225000 1.1071 1.3940 0.0000 0.0000 -17467.6360 2773.9663 0.0000 0.0000 1692.7780 -12998.3906 207.4886 -14691.1685 -12993.8192 209.8424 854.4188 930.2060 39635.7985 -2.4784 -2.4866
TCL: Running 50000 steps at 240 kelvin.
TCL: Setting parameter langevinTemp to 240
TCL: Running for 50000 steps
ETITLE: TS BOND ANGLE DIHED IMPRP ELECT VDW BOUNDARY MISC KINETIC TOTAL TEMP POTENTIAL TOTAL3 TEMPAVG PRESSURE GPRESSURE VOLUME PRESSAVG GPRESSAVG
ENERGY: 225000 1.1071 1.3940 0.0000 0.0000 -17467.6360 2773.9663 0.0000 0.0000 1691.9776 -12999.1909 207.3905 -14691.1685 -12996.5964 207.3905 849.9280 930.7065 39635.7985 849.9280 930.7065
ENERGY: 235000 0.1882 1.7362 0.0000 0.0000 -16433.0489 2403.0548 0.0000 0.0000 1985.9255 -12042.1443 243.4206 -14028.0698 -12038.7742 238.1430 77.6843 111.4889 40534.6924 -0.4635 0.0173
ENERGY: 245000 0.1617 0.9354 0.0000 0.0000 -16538.3158 2453.3121 0.0000 0.0000 1942.8864 -12141.0202 238.1452 -14083.9066 -12136.8388 238.8552 404.5994 479.8062 39954.7225 2.5557 2.4590
ENERGY: 255000 0.4878 1.4846 0.0000 0.0000 -16443.1071 2384.6653 0.0000 0.0000 1996.1404 -12060.3291 244.6726 -14056.4694 -12054.6581 239.9580 -190.9624 -94.5297 40657.0346 3.5704 3.7319
ENERGY: 265000 0.8693 0.7033 0.0000 0.0000 -16528.6080 2457.6313 0.0000 0.0000 1927.0748 -12142.3293 236.2071 -14069.4041 -12139.8422 240.6648 170.4876 240.3548 40615.2111 4.0336 3.6444
ENERGY: 275000 0.3670 1.8845 0.0000 0.0000 -16380.7001 2320.1481 0.0000 0.0000 1940.8702 -12117.4303 237.8980 -14058.3005 -12111.6344 239.6774 -326.6131 -247.5692 40093.3854 2.4739 3.5490
TCL: Running 50000 steps at 270 kelvin.
TCL: Setting parameter langevinTemp to 270
TCL: Running for 50000 steps
ETITLE: TS BOND ANGLE DIHED IMPRP ELECT VDW BOUNDARY MISC KINETIC TOTAL TEMP POTENTIAL TOTAL3 TEMPAVG PRESSURE GPRESSURE VOLUME PRESSAVG GPRESSAVG
ENERGY: 275000 0.3670 1.8845 0.0000 0.0000 -16380.7001 2320.1481 0.0000 0.0000 1939.9037 -12118.3968 237.7795 -14058.3005 -12115.5629 237.7795 -343.6371 -246.2357 40093.3854 -343.6371 -246.2357
ENERGY: 285000 0.0248 1.3335 0.0000 0.0000 -15726.8317 2191.8598 0.0000 0.0000 2155.0603 -11378.5533 264.1519 -13533.6136 -11373.9602 270.9867 -210.8058 -104.3192 41141.4446 2.4219 2.5369
ENERGY: 295000 0.8171 0.9171 0.0000 0.0000 -15678.2749 2183.8646 0.0000 0.0000 2209.5183 -11283.1578 270.8270 -13492.6761 -11279.7687 271.0389 -42.0253 36.0656 41028.8255 2.2316 3.1557
ENERGY: 305000 0.5420 1.4409 0.0000 0.0000 -15645.2850 2203.1684 0.0000 0.0000 2236.3497 -11203.7840 274.1158 -13440.1337 -11198.5112 270.1779 128.6047 238.7277 41068.4895 8.2253 8.3905
ENERGY: 315000 0.9035 1.9472 0.0000 0.0000 -15791.5908 2271.5596 0.0000 0.0000 2197.1911 -11319.9894 269.3160 -13517.1805 -11314.2972 269.5587 346.0354 428.6650 41133.9105 2.6725 2.1204
ENERGY: 325000 0.9759 2.3682 0.0000 0.0000 -15928.1376 2386.0798 0.0000 0.0000 2207.3949 -11331.3187 270.5667 -13538.7136 -11327.9889 270.1721 1094.4988 1248.1960 40828.1621 1.6290 1.5221
TCL: Running 1000000 steps at 300 kelvin.
TCL: Setting parameter langevinTemp to 300
TCL: Running for 1000000 steps
ETITLE: TS BOND ANGLE DIHED IMPRP ELECT VDW BOUNDARY MISC KINETIC TOTAL TEMP POTENTIAL TOTAL3 TEMPAVG PRESSURE GPRESSURE VOLUME PRESSAVG GPRESSAVG
ENERGY: 325000 0.9759 2.3682 0.0000 0.0000 -15928.1376 2386.0798 0.0000 0.0000 2206.2898 -11332.4238 270.4313 -13538.7136 -11329.2996 270.4313 1156.1029 1247.1824 40828.1621 1156.1029 1247.1824
ENERGY: 525000 0.1610 1.9068 0.0000 0.0000 -14844.9546 1913.6857 0.0000 0.0000 2424.2545 -10504.9466 297.1478 -12929.2011 -10499.0717 297.0030 -874.3161 -754.6178 42887.0023 0.1927 0.3438
ENERGY: 725000 0.6053 1.7072 0.0000 0.0000 -14893.3697 1939.0119 0.0000 0.0000 2569.9595 -10382.0858 315.0073 -12952.0453 -10374.5244 303.1357 -205.6612 -91.7363 41736.2410 2.4522 2.3579
ENERGY: 925000 0.1275 1.4162 0.0000 0.0000 -14925.2811 1949.6032 0.0000 0.0000 2397.4371 -10576.6972 293.8607 -12974.1343 -10571.4376 300.0249 -515.9071 -469.9605 42471.7783 0.9495 0.8542
ENERGY: 1125000 1.3046 2.1384 0.0000 0.0000 -14808.4586 1945.1854 0.0000 0.0000 2484.7991 -10375.0311 304.5689 -12859.8302 -10367.5981 299.5207 -189.8522 -140.6348 42314.7423 3.3375 2.8030
ENERGY: 1325000 1.4896 0.4509 0.0000 0.0000 -14756.9172 1957.2311 0.0000 0.0000 2475.8852 -10321.8602 303.4763 -12797.7455 -10317.1760 301.1573 -19.2396 38.8384 42172.9094 3.0445 2.3237
TCL: Exiting due to exit command.
