Info: SIMULATION PARAMETERS:
Info: TIMESTEP               2
Info: NUMBER OF STEPS        0
Info: STEPS PER CYCLE        10
Info: PERIODIC CELL BASIS 1  46.536 0 0
Info: PERIODIC CELL BASIS 2  0 45.969 0
Info: PERIODIC CELL BASIS 3  0 0 39.527
Info: PERIODIC CELL CENTER   0 0 0
Info: WRAPPING WATERS AROUND PERIODIC BOUNDARIES ON OUTPUT.
Info: WRAPPING ALL CLUSTERS AROUND PERIODIC BOUNDARIES ON OUTPUT.
Info: FIRST LDB TIMESTEP     50
Info: LAST LDB TIMESTEP     -1
Info: HOM BACKGROUND SCALING 1
Info: PME BACKGROUND SCALING 1
Info: MIN ATOMS PER PATCH    40
Info: EMPTY PATCH LOAD       40 ATOMS
Info: INITIAL TEMPERATURE    300
Info: CENTER OF MASS MOVING INITIALLY? NO
Info: DIELECTRIC             1
Info: EXCLUDE                SCALED ONE-FOUR
Info: 1-4 ELECTROSTATICS SCALED BY 0.833333
Info: MODIFIED 1-4 VDW PARAMETERS WILL BE USED
Info: DCD FILENAME           mobley_2845466_min.dcd
Info: DCD FREQUENCY          5000
Info: DCD FIRST STEP         5000
Info: DCD FILE WILL CONTAIN UNIT CELL DATA
Info: XST FILENAME           mobley_2845466_min.xst
Info: XST FREQUENCY          5000
Info: NO VELOCITY DCD OUTPUT
Info: NO FORCE DCD OUTPUT
Info: OUTPUT FILENAME        mobley_2845466_min
Info: BINARY OUTPUT FILES WILL BE USED
Info: RESTART FILENAME       mobley_2845466_min.restart
Info: RESTART FREQUENCY      5000
Info: BINARY RESTART FILES WILL BE USED
Info: CUTOFF                 9
Info: PAIRLIST DISTANCE      11
Info: PAIRLIST SHRINK RATE   0.01
Info: PAIRLIST GROW RATE     0.01
Info: PAIRLIST TRIGGER       0.3
Info: PAIRLISTS PER CYCLE    2
Info: PAIRLISTS ENABLED
Info: MARGIN                 8
Info: HYDROGEN GROUP CUTOFF  2.5
Info: PATCH DIMENSION        21.5
Info: ENERGY OUTPUT STEPS    5000
Info: ENERGY EVALUATION STEPS    5000
Info: OUTPUT ENERGY PRECISION 4
Info: CROSSTERM ENERGY INCLUDED IN DIHEDRAL
Info: TIMING OUTPUT STEPS    50000
Info: PRESSURE OUTPUT STEPS  5000
Info: LANGEVIN DYNAMICS ACTIVE
Info: LANGEVIN TEMPERATURE   300
Info: LANGEVIN USING BBK INTEGRATOR
Info: LANGEVIN DAMPING COEFFICIENT IS 1 INVERSE PS
Info: LANGEVIN DYNAMICS APPLIED TO HYDROGENS
Info: LANGEVIN PISTON PRESSURE CONTROL ACTIVE
Info:        TARGET PRESSURE IS 1.01325 BAR
Info:     OSCILLATION PERIOD IS 50 FS
Info:             DECAY TIME IS 25 FS
Info:     PISTON TEMPERATURE IS 300 K
Info:       PRESSURE CONTROL IS GROUP-BASED
Info:    INITIAL STRAIN RATE IS 0 0 0
Info:       CELL FLUCTUATION IS ISOTROPIC
Info: PARTICLE MESH EWALD (PME) ACTIVE
Info: PME TOLERANCE               1e-06
Info: PME EWALD COEFFICIENT       0.348832
Info: PME INTERPOLATION ORDER     4
Info: PME GRID DIMENSIONS         48 48 40
Info: PME MAXIMUM GRID SPACING    1
Info: FULL ELECTROSTATIC EVALUATION FREQUENCY      2
Info: USING VERLET I (r-RESPA) MTS SCHEME.
Info: C1 SPLITTING OF LONG RANGE ELECTROSTATICS
Info: PLACING ATOMS IN PATCHES BY HYDROGEN GROUPS
Info: RIGID BONDS TO HYDROGEN : ALL
Info:         ERROR TOLERANCE : 1e-08
Info:          MAX ITERATIONS : 100
Info: RIGID WATER USING SETTLE ALGORITHM
Info: RANDOM NUMBER SEED     1741322640
Info: USE HYDROGEN BONDS?    NO
Info: Using AMBER format force field!
Info: AMBER PARM FILE        mobley_2845466.prmtop
Info: COORDINATE PDB         mobley_2845466.pdb
Info: Exclusions will be read from PARM file!
Info: SCNB (VDW SCALING)     2
Info: USING ARITHMETIC MEAN TO COMBINE L-J SIGMA PARAMETERS
Info: SUMMARY OF PARAMETERS:
Info: 6 BONDS
Info: 5 ANGLES
Info:   5 HARMONIC
Info:   0 COSINE-BASED
Info: 3 DIHEDRAL
Info: 0 IMPROPER
Info: 0 CROSSTERM
Info: 0 VDW
Info: 21 VDW_PAIRS
Info: 0 NBTHOLE_PAIRS
Info: STRUCTURE SUMMARY:
Info: 6142 ATOMS
Info: 6144 BONDS
Info: 38 ANGLES
Info: 64 DIHEDRALS
Info: 0 IMPROPERS
Info: 0 CROSSTERMS
Info: 6229 EXCLUSIONS
Info: 6124 RIGID BONDS
Info: 12302 DEGREES OF FREEDOM
Info: 2058 HYDROGEN GROUPS
Info: 3 ATOMS IN LARGEST HYDROGEN GROUP
Info: 2058 MIGRATION GROUPS
Info: 3 ATOMS IN LARGEST MIGRATION GROUP
Info: TOTAL MASS = 37074.6 amu
Info: TOTAL CHARGE = 0.000300042 e
Info: MASS DENSITY = 0.728094 g/cm^3
Info: ATOM DENSITY = 0.0726377 atoms/A^3
Info: ADDED 0 IMPLICIT EXCLUSIONS
Info: NONBONDED TABLE R-SQUARED SPACING: 0.0625
Info: NONBONDED TABLE SIZE: 705 POINTS
Info: REMOVING COM VELOCITY -0.0769174 0.0607333 0.0625622
TCL: Minimizing for 2000 steps
ETITLE: TS BOND ANGLE DIHED IMPRP ELECT VDW BOUNDARY MISC KINETIC TOTAL TEMP POTENTIAL TOTAL3 TEMPAVG PRESSURE GPRESSURE VOLUME PRESSAVG GPRESSAVG
ENERGY: 0 0.6567 2.8661 0.0005 0.0000 -18981.8696 2161.1026 0.0000 0.0000 0.0000 -16817.2437 0.0000 -16817.2437 -16817.2437 0.0000 11191.1891 -15848.3946 84556.6874 11191.1891 -15848.3946
ENERGY: 400 3.7968 1.6242 0.0450 0.0000 -25787.1813 3845.1558 0.0000 0.0000 0.0000 -21936.5594 0.0000 -21936.5594 -21936.5594 0.0000 16204.7676 16348.3058 84556.6874 16204.7676 16348.3058
ENERGY: 800 6.1347 2.7549 0.0639 0.0000 -27166.0885 4389.1162 0.0000 0.0000 0.0000 -22768.0188 0.0000 -22768.0188 -22768.0188 0.0000 18223.6578 18353.7146 84556.6874 18223.6578 18353.7146
ENERGY: 1200 0.6586 0.5655 0.0202 0.0000 -27722.1787 4669.7429 0.0000 0.0000 0.0000 -23051.1916 0.0000 -23051.1916 -23051.1916 0.0000 19354.6116 19485.9673 84556.6874 19354.6116 19485.9673
ENERGY: 1600 0.6248 0.4960 0.2237 0.0000 -27935.7320 4762.6307 0.0000 0.0000 0.0000 -23171.7568 0.0000 -23171.7568 -23171.7568 0.0000 19743.0357 19871.1864 84556.6874 19743.0357 19871.1864
ENERGY: 2000 0.8381 0.5257 0.3512 0.0000 -28158.3311 4860.7614 0.0000 0.0000 0.0000 -23295.8547 0.0000 -23295.8547 -23295.8547 0.0000 20180.5611 20302.5879 84556.6874 20180.5611 20302.5879
TCL: Exiting due to exit command.
Info: NAMD 3.0.1 for Linux-x86_64-multicore
Info: Please visit http://www.ks.uiuc.edu/Research/namd/
Info: for updates, documentation, and support information.
Info: Please cite Phillips et al., J. Chem. Phys. 153:044130 (2020) doi:10.1063/5.0014475
Info: in all publications reporting results obtained with NAMD.
Info: Based on Charm++/Converse 80000 for multicore-linux-x86_64-gcc
Info: Built Mon Oct 14 11:11:06 CDT 2024 by dhardy on athine.ks.uiuc.edu
Info: 1 NAMD  3.0.1  Linux-x86_64-multicore  16    k012  z5358697
Info: Running on 16 processors, 1 nodes, 1 physical nodes.
Info: CPU topology information available.
Info: Charm++/Converse parallel runtime startup completed at 0.0105775 s
Info: 1043.45 MB of memory in use based on /proc/self/stat
Info: Configuration file is mobley_2845466_equil.namd
Info: Working in the current directory /srv/scratch/z5358697/prod_prep_3/2845466
TCL: Running 25000 steps at 30 kelvin.
TCL: Suspending until startup complete.
Info: SIMULATION PARAMETERS:
Info: TIMESTEP               2
Info: NUMBER OF STEPS        0
Info: STEPS PER CYCLE        10
Info: PERIODIC CELL BASIS 1  46.536 0 0
Info: PERIODIC CELL BASIS 2  0 45.969 0
Info: PERIODIC CELL BASIS 3  0 0 39.527
Info: PERIODIC CELL CENTER   0 0 0
Info: WRAPPING WATERS AROUND PERIODIC BOUNDARIES ON OUTPUT.
Info: WRAPPING ALL CLUSTERS AROUND PERIODIC BOUNDARIES ON OUTPUT.
Info: FIRST LDB TIMESTEP     50
Info: LAST LDB TIMESTEP     -1
Info: HOM BACKGROUND SCALING 1
Info: PME BACKGROUND SCALING 1
Info: MIN ATOMS PER PATCH    40
Info: EMPTY PATCH LOAD       40 ATOMS
Info: INITIAL TEMPERATURE    300
Info: CENTER OF MASS MOVING INITIALLY? NO
Info: DIELECTRIC             1
Info: EXCLUDE                SCALED ONE-FOUR
Info: 1-4 ELECTROSTATICS SCALED BY 0.833333
Info: MODIFIED 1-4 VDW PARAMETERS WILL BE USED
Info: DCD FILENAME           mobley_2845466_equil.dcd
Info: DCD FREQUENCY          5000
Info: DCD FIRST STEP         5000
Info: DCD FILE WILL CONTAIN UNIT CELL DATA
Info: XST FILENAME           mobley_2845466_equil.xst
Info: XST FREQUENCY          5000
Info: NO VELOCITY DCD OUTPUT
Info: NO FORCE DCD OUTPUT
Info: OUTPUT FILENAME        mobley_2845466_equil
Info: BINARY OUTPUT FILES WILL BE USED
Info: RESTART FILENAME       mobley_2845466_equil.restart
Info: RESTART FREQUENCY      5000
Info: BINARY RESTART FILES WILL BE USED
Info: CUTOFF                 9
Info: PAIRLIST DISTANCE      11
Info: PAIRLIST SHRINK RATE   0.01
Info: PAIRLIST GROW RATE     0.01
Info: PAIRLIST TRIGGER       0.3
Info: PAIRLISTS PER CYCLE    2
Info: PAIRLISTS ENABLED
Info: MARGIN                 8
Info: HYDROGEN GROUP CUTOFF  2.5
Info: PATCH DIMENSION        21.5
Info: ENERGY OUTPUT STEPS    5000
Info: ENERGY EVALUATION STEPS    5000
Info: OUTPUT ENERGY PRECISION 4
Info: CROSSTERM ENERGY INCLUDED IN DIHEDRAL
Info: TIMING OUTPUT STEPS    50000
Info: PRESSURE OUTPUT STEPS  5000
Info: LANGEVIN DYNAMICS ACTIVE
Info: LANGEVIN TEMPERATURE   30
Info: LANGEVIN USING BBK INTEGRATOR
Info: LANGEVIN DAMPING COEFFICIENT IS 1 INVERSE PS
Info: LANGEVIN DYNAMICS APPLIED TO HYDROGENS
Info: LANGEVIN PISTON PRESSURE CONTROL ACTIVE
Info:        TARGET PRESSURE IS 1.01325 BAR
Info:     OSCILLATION PERIOD IS 50 FS
Info:             DECAY TIME IS 25 FS
Info:     PISTON TEMPERATURE IS 300 K
Info:       PRESSURE CONTROL IS GROUP-BASED
Info:    INITIAL STRAIN RATE IS 0 0 0
Info:       CELL FLUCTUATION IS ISOTROPIC
Info: PARTICLE MESH EWALD (PME) ACTIVE
Info: PME TOLERANCE               1e-06
Info: PME EWALD COEFFICIENT       0.348832
Info: PME INTERPOLATION ORDER     4
Info: PME GRID DIMENSIONS         48 48 40
Info: PME MAXIMUM GRID SPACING    1
Info: FULL ELECTROSTATIC EVALUATION FREQUENCY      2
Info: USING VERLET I (r-RESPA) MTS SCHEME.
Info: C1 SPLITTING OF LONG RANGE ELECTROSTATICS
Info: PLACING ATOMS IN PATCHES BY HYDROGEN GROUPS
Info: RIGID BONDS TO HYDROGEN : ALL
Info:         ERROR TOLERANCE : 1e-08
Info:          MAX ITERATIONS : 100
Info: RIGID WATER USING SETTLE ALGORITHM
Info: RANDOM NUMBER SEED     1741322663
Info: USE HYDROGEN BONDS?    NO
Info: Using AMBER format force field!
Info: AMBER PARM FILE        mobley_2845466.prmtop
Info: COORDINATE PDB         mobley_2845466.pdb
Info: Exclusions will be read from PARM file!
Info: SCNB (VDW SCALING)     2
Info: USING ARITHMETIC MEAN TO COMBINE L-J SIGMA PARAMETERS
Info: BINARY COORDINATES     mobley_2845466_min.coor
Info: SUMMARY OF PARAMETERS:
Info: 6 BONDS
Info: 5 ANGLES
Info:   5 HARMONIC
Info:   0 COSINE-BASED
Info: 3 DIHEDRAL
Info: 0 IMPROPER
Info: 0 CROSSTERM
Info: 0 VDW
Info: 21 VDW_PAIRS
Info: 0 NBTHOLE_PAIRS
Info: STRUCTURE SUMMARY:
Info: 6142 ATOMS
Info: 6144 BONDS
Info: 38 ANGLES
Info: 64 DIHEDRALS
Info: 0 IMPROPERS
Info: 0 CROSSTERMS
Info: 6229 EXCLUSIONS
Info: 6124 RIGID BONDS
Info: 12302 DEGREES OF FREEDOM
Info: 2058 HYDROGEN GROUPS
Info: 3 ATOMS IN LARGEST HYDROGEN GROUP
Info: 2058 MIGRATION GROUPS
Info: 3 ATOMS IN LARGEST MIGRATION GROUP
Info: TOTAL MASS = 37074.6 amu
Info: TOTAL CHARGE = 0.000300042 e
Info: MASS DENSITY = 0.728094 g/cm^3
Info: ATOM DENSITY = 0.0726377 atoms/A^3
Info: ADDED 0 IMPLICIT EXCLUSIONS
Info: NONBONDED TABLE R-SQUARED SPACING: 0.0625
Info: NONBONDED TABLE SIZE: 705 POINTS
Info: REMOVING COM VELOCITY -0.0285486 0.0306253 -0.0937441
TCL: Running for 25000 steps
ETITLE: TS BOND ANGLE DIHED IMPRP ELECT VDW BOUNDARY MISC KINETIC TOTAL TEMP POTENTIAL TOTAL3 TEMPAVG PRESSURE GPRESSURE VOLUME PRESSAVG GPRESSAVG
ENERGY: 0 0.8381 0.5257 0.3512 0.0000 -28158.3311 4860.7614 0.0000 0.0000 3504.7124 -19791.1423 286.7260 -23295.8547 -19790.4190 286.7260 212.4284 247.5266 84556.6874 212.4284 247.5266
ENERGY: 5000 1.6607 0.5702 0.5952 0.0000 -29425.0198 5043.2444 0.0000 0.0000 380.4522 -23998.4971 31.1254 -24378.9493 -23997.6088 47.1888 -117.1235 -67.1757 58745.6982 -0.3291 -0.3842
ENERGY: 10000 1.4058 0.9846 0.6527 0.0000 -29488.6852 5056.5884 0.0000 0.0000 365.3152 -24063.7385 29.8870 -24429.0537 -24063.0007 30.3408 -194.2376 -143.8630 58772.0398 4.5344 4.5639
ENERGY: 15000 1.1520 1.0751 0.7857 0.0000 -29615.3425 5161.4878 0.0000 0.0000 375.1180 -24075.7240 30.6890 -24450.8420 -24075.0321 30.1907 241.9718 301.5907 58687.5838 2.2635 2.1338
ENERGY: 20000 0.9317 0.7628 0.4225 0.0000 -29564.9265 5088.3102 0.0000 0.0000 369.3616 -24105.1378 30.2180 -24474.4994 -24104.3433 30.0523 -94.5848 -31.5670 58722.5043 5.7679 5.5831
ENERGY: 25000 0.9052 0.5541 0.8136 0.0000 -29563.9257 5072.7254 0.0000 0.0000 365.7291 -24123.1983 29.9209 -24488.9274 -24122.2625 30.3316 -226.6158 -159.2847 58840.9513 1.2853 1.1842
TCL: Running 25000 steps at 60 kelvin.
TCL: Setting parameter langevinTemp to 60
TCL: Running for 25000 steps
ETITLE: TS BOND ANGLE DIHED IMPRP ELECT VDW BOUNDARY MISC KINETIC TOTAL TEMP POTENTIAL TOTAL3 TEMPAVG PRESSURE GPRESSURE VOLUME PRESSAVG GPRESSAVG
ENERGY: 25000 0.9052 0.5541 0.8136 0.0000 -29563.9257 5072.7254 0.0000 0.0000 365.5490 -24123.3785 29.9061 -24488.9274 -24122.6196 29.9061 -217.9272 -159.0581 58840.9513 -217.9272 -159.0581
ENERGY: 30000 2.5412 0.6036 1.0336 0.0000 -29305.0607 5148.2651 0.0000 0.0000 740.3267 -23412.2904 60.5673 -24152.6171 -23410.4616 57.0616 728.8152 765.9890 59026.5276 4.4059 4.3811
ENERGY: 35000 1.8203 1.6883 0.9718 0.0000 -29264.2306 5045.1932 0.0000 0.0000 745.0648 -23469.4923 60.9549 -24214.5571 -23467.4782 60.2938 134.8892 199.3163 59181.3303 2.6560 2.7351
ENERGY: 40000 0.9284 0.9805 0.8851 0.0000 -29347.1880 5116.9222 0.0000 0.0000 736.4285 -23491.0433 60.2484 -24227.4718 -23488.9546 59.7987 361.8034 428.2058 59243.4861 3.5238 3.2104
ENERGY: 45000 1.0820 1.0659 1.0621 0.0000 -29188.4630 4943.6170 0.0000 0.0000 735.0796 -23506.5564 60.1380 -24241.6360 -23504.4394 60.1089 -344.0016 -287.9273 59426.4278 4.5560 4.6585
ENERGY: 50000 0.7107 0.7099 1.9457 0.0000 -29315.7456 5035.5301 0.0000 0.0000 748.0721 -23528.7772 61.2009 -24276.8493 -23526.7648 59.7764 -18.2967 34.7527 59183.5367 0.4210 0.3266
TCL: Running 25000 steps at 90 kelvin.
TCL: Setting parameter langevinTemp to 90
TCL: Running for 25000 steps
ETITLE: TS BOND ANGLE DIHED IMPRP ELECT VDW BOUNDARY MISC KINETIC TOTAL TEMP POTENTIAL TOTAL3 TEMPAVG PRESSURE GPRESSURE VOLUME PRESSAVG GPRESSAVG
ENERGY: 50000 0.7107 0.7099 1.9457 0.0000 -29315.7456 5035.5301 0.0000 0.0000 747.7202 -23529.1291 61.1722 -24276.8493 -23527.6924 61.1722 -20.2066 34.7323 59183.5367 -20.2066 34.7323
ENERGY: 55000 1.2410 2.6773 1.7149 0.0000 -29068.1132 5171.4062 0.0000 0.0000 1085.6452 -22805.4285 88.8183 -23891.0737 -22804.1938 86.6059 1298.2735 1350.4994 59235.0758 -0.6667 -0.5083
ENERGY: 60000 2.8304 1.3124 2.4103 0.0000 -28830.5344 4863.9517 0.0000 0.0000 1093.2447 -22866.7849 89.4400 -23960.0296 -22864.3056 89.8565 -228.0621 -141.0612 59583.6280 2.1365 2.4801
ENERGY: 65000 1.8070 0.9060 2.2445 0.0000 -28958.5315 4932.6045 0.0000 0.0000 1085.7151 -22935.2545 88.8240 -24020.9696 -22931.6971 90.4161 24.8664 75.5319 59620.5563 1.5220 0.9890
ENERGY: 70000 2.7734 1.5039 2.6596 0.0000 -28980.4902 4925.7560 0.0000 0.0000 1116.1710 -22931.6263 91.3157 -24047.7973 -22929.6039 89.9692 24.9407 64.4048 59292.1694 7.8686 7.5039
ENERGY: 75000 2.0381 1.5946 1.6967 0.0000 -29091.4731 5062.0264 0.0000 0.0000 1106.8817 -22917.2357 90.5557 -24024.1174 -22915.3372 89.9467 514.9933 573.8723 59335.4975 4.5959 4.4761
TCL: Running 25000 steps at 120 kelvin.
TCL: Setting parameter langevinTemp to 120
TCL: Running for 25000 steps
ETITLE: TS BOND ANGLE DIHED IMPRP ELECT VDW BOUNDARY MISC KINETIC TOTAL TEMP POTENTIAL TOTAL3 TEMPAVG PRESSURE GPRESSURE VOLUME PRESSAVG GPRESSAVG
ENERGY: 75000 2.0381 1.5946 1.6967 0.0000 -29091.4731 5062.0264 0.0000 0.0000 1106.3244 -22917.7930 90.5101 -24024.1174 -22915.6832 90.5101 512.3348 573.2355 59335.4975 512.3348 573.2355
ENERGY: 80000 4.6309 1.7614 1.5701 0.0000 -28287.0917 4664.0990 0.0000 0.0000 1466.3015 -22148.7288 119.9604 -23615.0303 -22145.5895 116.6026 -467.3446 -430.5397 60243.6209 5.3769 5.4738
ENERGY: 85000 2.6197 1.9884 1.9355 0.0000 -28382.4935 4685.3511 0.0000 0.0000 1471.8736 -22218.7252 120.4163 -23690.5987 -22214.7529 119.7248 -383.2109 -339.4872 59744.4231 -0.3192 -0.3958
ENERGY: 90000 2.7842 2.0684 1.6529 0.0000 -28625.8141 4916.3494 0.0000 0.0000 1461.1044 -22241.8549 119.5352 -23702.9593 -22237.3349 120.0488 569.2347 621.1129 59395.3199 2.3333 2.2796
ENERGY: 95000 2.7071 2.5973 3.8689 0.0000 -28571.3371 4833.0244 0.0000 0.0000 1491.9968 -22237.1426 122.0626 -23729.1394 -22234.3709 119.3361 145.2757 209.5360 59570.2676 1.3771 1.3144
ENERGY: 100000 3.0034 1.6225 2.8938 0.0000 -28401.1139 4655.1916 0.0000 0.0000 1480.8373 -22257.5652 121.1496 -23738.4026 -22252.8945 120.7089 -678.2596 -611.0779 59901.6827 2.8382 2.7019
TCL: Running 25000 steps at 150 kelvin.
TCL: Setting parameter langevinTemp to 150
TCL: Running for 25000 steps
ETITLE: TS BOND ANGLE DIHED IMPRP ELECT VDW BOUNDARY MISC KINETIC TOTAL TEMP POTENTIAL TOTAL3 TEMPAVG PRESSURE GPRESSURE VOLUME PRESSAVG GPRESSAVG
ENERGY: 100000 3.0034 1.6225 2.8938 0.0000 -28401.1139 4655.1916 0.0000 0.0000 1480.1127 -22258.2899 121.0903 -23738.4026 -22255.3201 121.0903 -662.4211 -610.1573 59901.6827 -662.4211 -610.1573
ENERGY: 105000 4.0616 1.3506 0.6864 0.0000 -27793.3954 4505.8839 0.0000 0.0000 1873.4001 -21408.0128 153.2658 -23281.4129 -21404.1415 146.7812 -473.9535 -457.0334 60586.8369 1.4655 1.3197
ENERGY: 110000 3.5708 1.7064 1.7681 0.0000 -27887.1907 4523.8192 0.0000 0.0000 1818.6386 -21537.6876 148.7857 -23356.3262 -21534.2810 151.0663 -590.0888 -546.1565 60591.9057 3.2964 3.5381
ENERGY: 115000 2.2326 2.7060 2.1178 0.0000 -28257.8075 4895.5933 0.0000 0.0000 1883.4460 -21471.7117 154.0877 -23355.1578 -21467.5166 148.5552 1111.7901 1167.8649 59717.5755 -0.4376 -0.8130
ENERGY: 120000 2.5064 2.2731 2.3987 0.0000 -28230.8913 4825.6838 0.0000 0.0000 1847.3746 -21550.6546 151.1366 -23398.0292 -21546.0256 150.0431 586.6201 667.2378 60065.0321 1.2397 0.7828
ENERGY: 125000 2.7071 2.1560 3.5086 0.0000 -28123.3992 4738.2306 0.0000 0.0000 1874.2962 -21502.5007 153.3391 -23376.7969 -21497.1731 151.1206 330.7734 385.2792 60031.4480 -0.5208 -0.2616
TCL: Running 50000 steps at 180 kelvin.
TCL: Setting parameter langevinTemp to 180
TCL: Running for 50000 steps
ETITLE: TS BOND ANGLE DIHED IMPRP ELECT VDW BOUNDARY MISC KINETIC TOTAL TEMP POTENTIAL TOTAL3 TEMPAVG PRESSURE GPRESSURE VOLUME PRESSAVG GPRESSAVG
ENERGY: 125000 2.7071 2.1560 3.5086 0.0000 -28123.3992 4738.2306 0.0000 0.0000 1873.3819 -21503.4150 153.2643 -23376.7969 -21500.1206 153.2643 338.0508 385.9327 60031.4480 338.0508 385.9327
ENERGY: 135000 4.4353 3.6784 3.1189 0.0000 -27447.2667 4576.9853 0.0000 0.0000 2221.3006 -20637.7482 181.7281 -22859.0489 -20631.9807 179.8696 518.2318 560.6891 60559.3550 3.3339 3.2902
ENERGY: 145000 3.0969 2.6903 2.7487 0.0000 -27229.1321 4401.2767 0.0000 0.0000 2209.5935 -20609.7260 180.7703 -22819.3194 -20604.7950 181.4645 -10.9936 61.2801 60419.6423 1.9670 1.3445
ENERGY: 155000 2.9957 2.1353 6.1080 0.0000 -27160.3155 4308.6597 0.0000 0.0000 2254.1335 -20586.2832 184.4142 -22840.4167 -20582.6446 180.9559 -400.2492 -314.3062 60154.5858 6.5892 6.0958
ENERGY: 165000 2.6591 4.2320 5.3975 0.0000 -27077.6061 4222.3904 0.0000 0.0000 2141.5721 -20701.3550 175.2054 -22842.9272 -20694.7801 180.4708 -747.2632 -702.7523 60642.1929 0.8857 1.1105
ENERGY: 175000 3.9140 2.9996 4.3392 0.0000 -27205.5034 4352.5903 0.0000 0.0000 2184.6619 -20656.9984 178.7306 -22841.6603 -20653.2403 179.6354 -326.1750 -273.4092 60727.1998 4.0962 3.6898
TCL: Running 50000 steps at 210 kelvin.
TCL: Setting parameter langevinTemp to 210
TCL: Running for 50000 steps
ETITLE: TS BOND ANGLE DIHED IMPRP ELECT VDW BOUNDARY MISC KINETIC TOTAL TEMP POTENTIAL TOTAL3 TEMPAVG PRESSURE GPRESSURE VOLUME PRESSAVG GPRESSAVG
ENERGY: 175000 3.9140 2.9996 4.3392 0.0000 -27205.5034 4352.5903 0.0000 0.0000 2183.5659 -20658.0944 178.6409 -22841.6603 -20653.8137 178.6409 -338.8847 -274.2408 60727.1998 -338.8847 -274.2408
ENERGY: 185000 4.7489 3.6341 6.1500 0.0000 -26026.7077 4039.0537 0.0000 0.0000 2605.6088 -19367.5122 213.1689 -21973.1210 -19360.6821 209.8040 245.5167 375.8309 59556.3669 -0.3672 -0.2935
ENERGY: 195000 3.2132 3.4406 3.4131 0.0000 -25833.8251 3868.3296 0.0000 0.0000 2564.6582 -19390.7705 209.8187 -21955.4287 -19383.7866 210.4595 -534.9285 -438.9846 60084.7090 9.3634 9.6254
ENERGY: 205000 4.8569 4.2587 2.6349 0.0000 -25758.9113 3849.8494 0.0000 0.0000 2546.7552 -19350.5563 208.3540 -21897.3114 -19346.1452 209.8440 -621.9327 -528.6419 60660.8378 5.0551 4.8423
ENERGY: 215000 3.5978 4.0556 6.1786 0.0000 -25913.5849 3969.3560 0.0000 0.0000 2608.6459 -19321.7510 213.4174 -21930.3969 -19315.3078 210.7709 79.9115 149.8120 59799.2802 3.1174 3.5818
ENERGY: 225000 5.5457 5.4077 5.8407 0.0000 -25703.6749 3814.7984 0.0000 0.0000 2574.9357 -19297.1467 210.6595 -21872.0824 -19293.2728 210.4236 -530.8332 -455.0490 59967.7412 -0.3501 -0.1842
TCL: Running 50000 steps at 240 kelvin.
TCL: Setting parameter langevinTemp to 240
TCL: Running for 50000 steps
ETITLE: TS BOND ANGLE DIHED IMPRP ELECT VDW BOUNDARY MISC KINETIC TOTAL TEMP POTENTIAL TOTAL3 TEMPAVG PRESSURE GPRESSURE VOLUME PRESSAVG GPRESSAVG
ENERGY: 225000 5.5457 5.4077 5.8407 0.0000 -25703.6749 3814.7984 0.0000 0.0000 2573.6324 -19298.4499 210.5529 -21872.0824 -19294.1729 210.5529 -540.6649 -455.4788 59967.7412 -540.6649 -455.4788
ENERGY: 235000 5.4124 3.0626 4.1572 0.0000 -24401.4916 3433.7877 0.0000 0.0000 2964.5911 -17990.4806 242.5378 -20955.0717 -17985.8833 239.6078 -297.2279 -208.2850 60173.3413 1.2215 1.1235
ENERGY: 245000 7.3208 4.9496 3.4514 0.0000 -24539.2419 3637.2203 0.0000 0.0000 2937.8283 -17948.4716 240.3483 -20886.2999 -17940.5599 240.1320 574.2954 682.6727 59864.2846 0.0646 0.2193
ENERGY: 255000 5.9236 6.7200 4.3873 0.0000 -24721.6943 3702.2547 0.0000 0.0000 2895.5268 -18106.8819 236.8876 -21002.4087 -18102.2160 241.2912 609.0711 696.2412 60030.2529 -0.1052 0.3165
ENERGY: 265000 5.0437 5.5024 4.8688 0.0000 -24479.7805 3540.1116 0.0000 0.0000 2937.1428 -17987.1112 240.2922 -20924.2540 -17977.6535 239.7863 -275.3874 -185.0443 60953.5621 2.0591 2.0764
ENERGY: 275000 6.3149 2.4035 4.3744 0.0000 -24301.5990 3370.3950 0.0000 0.0000 2943.4590 -17974.6522 240.8090 -20918.1112 -17965.6085 239.2962 -760.4849 -673.2751 60712.5129 -1.4287 -1.8776
TCL: Running 50000 steps at 270 kelvin.
TCL: Setting parameter langevinTemp to 270
TCL: Running for 50000 steps
ETITLE: TS BOND ANGLE DIHED IMPRP ELECT VDW BOUNDARY MISC KINETIC TOTAL TEMP POTENTIAL TOTAL3 TEMPAVG PRESSURE GPRESSURE VOLUME PRESSAVG GPRESSAVG
ENERGY: 275000 6.3149 2.4035 4.3744 0.0000 -24301.5990 3370.3950 0.0000 0.0000 2942.0468 -17976.0644 240.6934 -20918.1112 -17971.3485 240.6934 -756.3956 -672.2754 60712.5129 -756.3956 -672.2754
ENERGY: 285000 5.3886 4.2583 5.9836 0.0000 -23380.4516 3343.3832 0.0000 0.0000 3305.7775 -16715.6604 270.4508 -20021.4379 -16709.1427 270.5115 484.2358 554.3070 61648.7683 2.1675 2.0343
ENERGY: 295000 5.6669 1.6098 5.5461 0.0000 -23383.5687 3271.0049 0.0000 0.0000 3299.1811 -16800.5598 269.9111 -20099.7409 -16791.8724 271.1820 94.4281 202.6699 61294.6715 3.1215 3.3535
ENERGY: 305000 3.0557 7.1618 4.7443 0.0000 -23280.4414 3150.6885 0.0000 0.0000 3310.7691 -16804.0219 270.8592 -20114.7911 -16797.6051 270.5646 -154.2882 -34.4151 60743.7166 -0.0234 -0.1589
ENERGY: 315000 3.0909 5.2241 8.4934 0.0000 -23414.3131 3273.8650 0.0000 0.0000 3270.1685 -16853.4711 267.5376 -20123.6397 -16845.6029 268.8914 1.4818 78.9474 61641.6984 -3.4877 -2.8519
ENERGY: 325000 4.5663 3.8662 3.0416 0.0000 -23753.2597 3489.2136 0.0000 0.0000 3401.8284 -16850.7436 278.3089 -20252.5720 -16842.5411 269.4360 715.1237 807.4778 61258.5985 1.7158 1.8997
TCL: Running 1000000 steps at 300 kelvin.
TCL: Setting parameter langevinTemp to 300
TCL: Running for 1000000 steps
ETITLE: TS BOND ANGLE DIHED IMPRP ELECT VDW BOUNDARY MISC KINETIC TOTAL TEMP POTENTIAL TOTAL3 TEMPAVG PRESSURE GPRESSURE VOLUME PRESSAVG GPRESSAVG
ENERGY: 325000 4.5663 3.8662 3.0416 0.0000 -23753.2597 3489.2136 0.0000 0.0000 3400.1276 -16852.4444 278.1697 -20252.5720 -16847.8124 278.1697 717.6551 807.5437 61258.5985 717.6551 807.5437
ENERGY: 525000 10.6557 7.9971 3.2892 0.0000 -22398.6770 3073.0729 0.0000 0.0000 3679.9075 -15623.7546 301.0590 -19303.6621 -15621.3820 300.4982 272.5969 361.1366 63213.5998 1.0947 1.2218
ENERGY: 725000 6.2132 6.7830 4.0026 0.0000 -22408.5048 3041.5067 0.0000 0.0000 3680.2508 -15669.7486 301.0870 -19349.9994 -15661.6162 298.0106 62.9101 115.2481 63316.3336 1.8170 2.5000
ENERGY: 925000 7.3854 9.2319 3.9630 0.0000 -22378.5309 3089.1438 0.0000 0.0000 3613.3079 -15655.4990 295.6103 -19268.8069 -15649.2027 299.8262 265.2341 332.2230 63690.5899 5.4509 5.5553
ENERGY: 1125000 9.7028 9.1078 5.0218 0.0000 -22223.3169 2990.0021 0.0000 0.0000 3660.6642 -15548.8181 299.4846 -19209.4823 -15543.0464 301.2902 -80.3970 50.0897 63117.6991 3.8961 4.2540
ENERGY: 1325000 5.6828 4.5387 5.7770 0.0000 -22334.6020 2997.4214 0.0000 0.0000 3626.4698 -15694.7123 296.6871 -19321.1821 -15687.5188 299.6626 113.2651 162.7745 63043.1891 1.6338 1.9732
TCL: Exiting due to exit command.
