Info: SIMULATION PARAMETERS:
Info: TIMESTEP               2
Info: NUMBER OF STEPS        0
Info: STEPS PER CYCLE        10
Info: PERIODIC CELL BASIS 1  34.986 0 0
Info: PERIODIC CELL BASIS 2  0 35.779 0
Info: PERIODIC CELL BASIS 3  0 0 35.723
Info: PERIODIC CELL CENTER   0 0 0
Info: WRAPPING WATERS AROUND PERIODIC BOUNDARIES ON OUTPUT.
Info: WRAPPING ALL CLUSTERS AROUND PERIODIC BOUNDARIES ON OUTPUT.
Info: FIRST LDB TIMESTEP     50
Info: LAST LDB TIMESTEP     -1
Info: HOM BACKGROUND SCALING 1
Info: PME BACKGROUND SCALING 1
Info: MIN ATOMS PER PATCH    40
Info: EMPTY PATCH LOAD       40 ATOMS
Info: INITIAL TEMPERATURE    300
Info: CENTER OF MASS MOVING INITIALLY? NO
Info: DIELECTRIC             1
Info: EXCLUDE                SCALED ONE-FOUR
Info: 1-4 ELECTROSTATICS SCALED BY 0.833333
Info: MODIFIED 1-4 VDW PARAMETERS WILL BE USED
Info: DCD FILENAME           mobley_1278715_equil.dcd
Info: DCD FREQUENCY          100000
Info: DCD FIRST STEP         100000
Info: DCD FILE WILL CONTAIN UNIT CELL DATA
Info: XST FILENAME           mobley_1278715_equil.xst
Info: XST FREQUENCY          100000
Info: NO VELOCITY DCD OUTPUT
Info: NO FORCE DCD OUTPUT
Info: OUTPUT FILENAME        mobley_1278715_equil
Info: BINARY OUTPUT FILES WILL BE USED
Info: RESTART FILENAME       mobley_1278715_equil.restart
Info: RESTART FREQUENCY      100000
Info: BINARY RESTART FILES WILL BE USED
Info: CUTOFF                 9
Info: PAIRLIST DISTANCE      11
Info: PAIRLIST SHRINK RATE   0.01
Info: PAIRLIST GROW RATE     0.01
Info: PAIRLIST TRIGGER       0.3
Info: PAIRLISTS PER CYCLE    2
Info: PAIRLISTS ENABLED
Info: MARGIN                 8
Info: HYDROGEN GROUP CUTOFF  2.5
Info: PATCH DIMENSION        21.5
Info: ENERGY OUTPUT STEPS    100000
Info: ENERGY EVALUATION STEPS    100000
Info: OUTPUT ENERGY PRECISION 4
Info: CROSSTERM ENERGY INCLUDED IN DIHEDRAL
Info: TIMING OUTPUT STEPS    1000000
Info: PRESSURE OUTPUT STEPS  100000
Info: LANGEVIN DYNAMICS ACTIVE
Info: LANGEVIN TEMPERATURE   30
Info: LANGEVIN USING BBK INTEGRATOR
Info: LANGEVIN DAMPING COEFFICIENT IS 1 INVERSE PS
Info: LANGEVIN DYNAMICS APPLIED TO HYDROGENS
Info: LANGEVIN PISTON PRESSURE CONTROL ACTIVE
Info:        TARGET PRESSURE IS 1.01325 BAR
Info:     OSCILLATION PERIOD IS 50 FS
Info:             DECAY TIME IS 25 FS
Info:     PISTON TEMPERATURE IS 300 K
Info:       PRESSURE CONTROL IS GROUP-BASED
Info:    INITIAL STRAIN RATE IS 0 0 0
Info:       CELL FLUCTUATION IS ISOTROPIC
Info: PARTICLE MESH EWALD (PME) ACTIVE
Info: PME TOLERANCE               1e-06
Info: PME EWALD COEFFICIENT       0.348832
Info: PME INTERPOLATION ORDER     4
Info: PME GRID DIMENSIONS         36 36 36
Info: PME MAXIMUM GRID SPACING    1
Info: FULL ELECTROSTATIC EVALUATION FREQUENCY      2
Info: USING VERLET I (r-RESPA) MTS SCHEME.
Info: C1 SPLITTING OF LONG RANGE ELECTROSTATICS
Info: PLACING ATOMS IN PATCHES BY HYDROGEN GROUPS
Info: RIGID BONDS TO HYDROGEN : ALL
Info:         ERROR TOLERANCE : 1e-08
Info:          MAX ITERATIONS : 100
Info: RIGID WATER USING SETTLE ALGORITHM
Info: RANDOM NUMBER SEED     1741923580
Info: USE HYDROGEN BONDS?    NO
Info: Using AMBER format force field!
Info: AMBER PARM FILE        mobley_1278715.prmtop
Info: COORDINATE PDB         mobley_1278715.pdb
Info: Exclusions will be read from PARM file!
Info: SCNB (VDW SCALING)     2
Info: USING ARITHMETIC MEAN TO COMBINE L-J SIGMA PARAMETERS
Info: BINARY COORDINATES     mobley_1278715_min.coor
Info: SUMMARY OF PARAMETERS:
Info: 4 BONDS
Info: 2 ANGLES
Info:   2 HARMONIC
Info:   0 COSINE-BASED
Info: 1 DIHEDRAL
Info: 0 IMPROPER
Info: 0 CROSSTERM
Info: 0 VDW
Info: 10 VDW_PAIRS
Info: 0 NBTHOLE_PAIRS
Info: STRUCTURE SUMMARY:
Info: 2957 ATOMS
Info: 2956 BONDS
Info: 12 ANGLES
Info: 9 DIHEDRALS
Info: 0 IMPROPERS
Info: 0 CROSSTERMS
Info: 2977 EXCLUSIONS
Info: 2949 RIGID BONDS
Info: 5922 DEGREES OF FREEDOM
Info: 991 HYDROGEN GROUPS
Info: 3 ATOMS IN LARGEST HYDROGEN GROUP
Info: 991 MIGRATION GROUPS
Info: 3 ATOMS IN LARGEST MIGRATION GROUP
Info: TOTAL MASS = 17946.4 amu
Info: TOTAL CHARGE = -0.000199974 e
Info: MASS DENSITY = 0.66645 g/cm^3
Info: ATOM DENSITY = 0.0661273 atoms/A^3
Info: ADDED 0 IMPLICIT EXCLUSIONS
Info: NONBONDED TABLE R-SQUARED SPACING: 0.0625
Info: NONBONDED TABLE SIZE: 705 POINTS
Info: REMOVING COM VELOCITY 0.128387 0.115283 -0.102679
TCL: Running for 100000 steps
ETITLE: TS BOND ANGLE DIHED IMPRP ELECT VDW BOUNDARY MISC KINETIC TOTAL TEMP POTENTIAL TOTAL3 TEMPAVG PRESSURE GPRESSURE VOLUME PRESSAVG GPRESSAVG
ENERGY: 0 0.1623 0.3236 0.0034 0.0000 -13735.3109 2439.8339 0.0000 0.0000 1794.6708 -9500.3167 305.0049 -11294.9875 -9499.9669 305.0049 583.9428 615.7403 44716.7687 583.9428 615.7403
ENERGY: 100000 0.4372 0.7195 0.0089 0.0000 -14446.6890 2605.1860 0.0000 0.0000 174.2093 -11666.1280 29.6069 -11840.3373 -11665.6564 30.9367 1146.1351 1192.8034 28358.8727 3.5305 3.5693
TCL: Running 100000 steps at 60 kelvin.
TCL: Setting parameter langevinTemp to 60
TCL: Running for 100000 steps
ETITLE: TS BOND ANGLE DIHED IMPRP ELECT VDW BOUNDARY MISC KINETIC TOTAL TEMP POTENTIAL TOTAL3 TEMPAVG PRESSURE GPRESSURE VOLUME PRESSAVG GPRESSAVG
ENERGY: 100000 0.4372 0.7195 0.0089 0.0000 -14446.6890 2605.1860 0.0000 0.0000 174.1216 -11666.2157 29.5920 -11840.3373 -11665.8291 29.5920 1146.6400 1192.8006 28358.8727 1146.6400 1192.8006
ENERGY: 200000 0.1237 1.0607 0.0615 0.0000 -13975.1046 2238.2717 0.0000 0.0000 351.7514 -11383.8354 59.7803 -11735.5868 -11382.8064 60.0454 -1549.7075 -1500.0221 28719.3817 4.3318 4.3710
TCL: Running 100000 steps at 90 kelvin.
TCL: Setting parameter langevinTemp to 90
TCL: Running for 100000 steps
ETITLE: TS BOND ANGLE DIHED IMPRP ELECT VDW BOUNDARY MISC KINETIC TOTAL TEMP POTENTIAL TOTAL3 TEMPAVG PRESSURE GPRESSURE VOLUME PRESSAVG GPRESSAVG
ENERGY: 200000 0.1237 1.0607 0.0615 0.0000 -13975.1046 2238.2717 0.0000 0.0000 351.5754 -11384.0115 59.7503 -11735.5868 -11383.1536 59.7503 -1548.9744 -1499.8743 28719.3817 -1548.9744 -1499.8743
ENERGY: 300000 0.6070 1.0436 0.0917 0.0000 -13941.1141 2321.0327 0.0000 0.0000 531.6259 -11086.7131 90.3500 -11618.3390 -11085.5342 89.8907 -250.7252 -220.2803 28397.1143 4.0206 4.0289
TCL: Running 100000 steps at 120 kelvin.
TCL: Setting parameter langevinTemp to 120
TCL: Running for 100000 steps
ETITLE: TS BOND ANGLE DIHED IMPRP ELECT VDW BOUNDARY MISC KINETIC TOTAL TEMP POTENTIAL TOTAL3 TEMPAVG PRESSURE GPRESSURE VOLUME PRESSAVG GPRESSAVG
ENERGY: 300000 0.6070 1.0436 0.0917 0.0000 -13941.1141 2321.0327 0.0000 0.0000 531.3601 -11086.9790 90.3048 -11618.3390 -11086.0482 90.3048 -281.0969 -220.2403 28397.1143 -281.0969 -220.2403
ENERGY: 400000 0.3618 1.1864 0.0973 0.0000 -13955.8687 2473.2940 0.0000 0.0000 693.2461 -10787.6832 117.8174 -11480.9292 -10786.4936 119.8321 1206.9229 1249.9330 28582.3786 4.2001 4.1633
TCL: Running 100000 steps at 150 kelvin.
TCL: Setting parameter langevinTemp to 150
TCL: Running for 100000 steps
ETITLE: TS BOND ANGLE DIHED IMPRP ELECT VDW BOUNDARY MISC KINETIC TOTAL TEMP POTENTIAL TOTAL3 TEMPAVG PRESSURE GPRESSURE VOLUME PRESSAVG GPRESSAVG
ENERGY: 400000 0.3618 1.1864 0.0973 0.0000 -13955.8687 2473.2940 0.0000 0.0000 692.8908 -10788.0385 117.7570 -11480.9292 -10786.6916 117.7570 1202.2979 1249.8167 28582.3786 1202.2979 1249.8167
ENERGY: 500000 1.1201 0.6699 0.2861 0.0000 -13586.8152 2301.0721 0.0000 0.0000 892.0289 -10391.6380 151.6006 -11283.6669 -10388.5531 149.7199 655.1865 726.2692 28649.4493 3.9877 3.9698
TCL: Running 100000 steps at 180 kelvin.
TCL: Setting parameter langevinTemp to 180
TCL: Running for 100000 steps
ETITLE: TS BOND ANGLE DIHED IMPRP ELECT VDW BOUNDARY MISC KINETIC TOTAL TEMP POTENTIAL TOTAL3 TEMPAVG PRESSURE GPRESSURE VOLUME PRESSAVG GPRESSAVG
ENERGY: 500000 1.1201 0.6699 0.2861 0.0000 -13586.8152 2301.0721 0.0000 0.0000 891.5933 -10392.0736 151.5266 -11283.6669 -10390.4261 151.5266 661.5889 726.7375 28649.4493 661.5889 726.7375
ENERGY: 600000 2.8434 0.6915 0.0603 0.0000 -13179.1132 2158.4943 0.0000 0.0000 1053.8543 -9963.1693 179.1029 -11017.0236 -9959.9932 180.1301 272.4194 296.1536 29036.1728 4.6948 4.7458
TCL: Running 100000 steps at 210 kelvin.
TCL: Setting parameter langevinTemp to 210
TCL: Running for 100000 steps
ETITLE: TS BOND ANGLE DIHED IMPRP ELECT VDW BOUNDARY MISC KINETIC TOTAL TEMP POTENTIAL TOTAL3 TEMPAVG PRESSURE GPRESSURE VOLUME PRESSAVG GPRESSAVG
ENERGY: 600000 2.8434 0.6915 0.0603 0.0000 -13179.1132 2158.4943 0.0000 0.0000 1053.3069 -9963.7167 179.0098 -11017.0236 -9961.8241 179.0098 237.3877 296.9545 29036.1728 237.3877 296.9545
ENERGY: 700000 0.2959 1.5427 0.0855 0.0000 -12434.8656 1921.1581 0.0000 0.0000 1275.8071 -9235.9763 216.8238 -10511.7834 -9233.3418 210.0458 120.0238 148.6211 29431.3396 4.6124 4.4491
TCL: Running 100000 steps at 240 kelvin.
TCL: Setting parameter langevinTemp to 240
TCL: Running for 100000 steps
ETITLE: TS BOND ANGLE DIHED IMPRP ELECT VDW BOUNDARY MISC KINETIC TOTAL TEMP POTENTIAL TOTAL3 TEMPAVG PRESSURE GPRESSURE VOLUME PRESSAVG GPRESSAVG
ENERGY: 700000 0.2959 1.5427 0.0855 0.0000 -12434.8656 1921.1581 0.0000 0.0000 1275.1927 -9236.5907 216.7194 -10511.7834 -9234.7186 216.7194 77.5433 148.1926 29431.3396 77.5433 148.1926
ENERGY: 800000 1.7592 2.5664 0.1654 0.0000 -11835.0052 1716.3041 0.0000 0.0000 1409.6860 -8704.5241 239.5766 -10114.2102 -8701.8123 239.6064 -184.6231 -71.9296 29372.4148 3.5262 3.6311
TCL: Running 100000 steps at 270 kelvin.
TCL: Setting parameter langevinTemp to 270
TCL: Running for 100000 steps
ETITLE: TS BOND ANGLE DIHED IMPRP ELECT VDW BOUNDARY MISC KINETIC TOTAL TEMP POTENTIAL TOTAL3 TEMPAVG PRESSURE GPRESSURE VOLUME PRESSAVG GPRESSAVG
ENERGY: 800000 1.7592 2.5664 0.1654 0.0000 -11835.0052 1716.3041 0.0000 0.0000 1409.0066 -8705.2035 239.4611 -10114.2102 -8703.0623 239.4611 -149.9130 -71.1706 29372.4148 -149.9130 -71.1706
ENERGY: 900000 2.7529 3.8269 0.1059 0.0000 -11208.9072 1493.3700 0.0000 0.0000 1615.0315 -8093.8201 274.4751 -9708.8516 -8092.0419 270.3563 -788.5178 -673.6454 29840.3589 3.1702 3.1667
TCL: Running 1000000 steps at 300 kelvin.
TCL: Setting parameter langevinTemp to 300
TCL: Running for 1000000 steps
ETITLE: TS BOND ANGLE DIHED IMPRP ELECT VDW BOUNDARY MISC KINETIC TOTAL TEMP POTENTIAL TOTAL3 TEMPAVG PRESSURE GPRESSURE VOLUME PRESSAVG GPRESSAVG
ENERGY: 900000 2.7529 3.8269 0.1059 0.0000 -11208.9072 1493.3700 0.0000 0.0000 1614.2462 -8094.6054 274.3417 -9708.8516 -8092.3193 274.3417 -770.0909 -674.3389 29840.3589 -770.0909 -674.3389
ENERGY: 1100000 2.6594 1.7418 0.8931 0.0000 -10656.1251 1405.3154 0.0000 0.0000 1784.2150 -7461.3005 303.2279 -9245.5155 -7457.8530 300.8212 -196.4237 -93.8291 30436.1877 4.0031 3.9534
ENERGY: 1300000 4.1973 0.9748 0.2088 0.0000 -10818.6819 1448.8897 0.0000 0.0000 1778.6640 -7585.7474 302.2845 -9364.4113 -7582.3307 300.4545 -382.2227 -296.9528 30846.1147 1.5488 1.4629
ENERGY: 1500000 3.1322 2.8764 0.2880 0.0000 -10722.1998 1444.3871 0.0000 0.0000 1793.4467 -7478.0692 304.7968 -9271.5160 -7474.6515 300.0965 257.6206 352.6446 30332.8115 3.4650 3.4904
ENERGY: 1700000 1.8824 2.6201 0.5218 0.0000 -10571.0913 1324.7389 0.0000 0.0000 1772.1587 -7469.1694 301.1789 -9241.3281 -7466.3276 300.1109 -614.4844 -542.0484 30620.5254 3.1121 2.7945
ENERGY: 1900000 3.8416 1.7463 0.1743 0.0000 -10664.6478 1393.3118 0.0000 0.0000 1792.1460 -7473.4277 304.5758 -9265.5737 -7470.4031 300.5094 -70.7871 18.4133 30181.7628 2.6031 2.5873
TCL: Exiting due to exit command.
