Info: SIMULATION PARAMETERS:
Info: TIMESTEP               2
Info: NUMBER OF STEPS        0
Info: STEPS PER CYCLE        10
Info: PERIODIC CELL BASIS 1  31.7819 0 0
Info: PERIODIC CELL BASIS 2  0 30.3385 0
Info: PERIODIC CELL BASIS 3  0 0 32.0556
Info: PERIODIC CELL CENTER   0 0 0
Info: WRAPPING WATERS AROUND PERIODIC BOUNDARIES ON OUTPUT.
Info: WRAPPING ALL CLUSTERS AROUND PERIODIC BOUNDARIES ON OUTPUT.
Info: FIRST LDB TIMESTEP     50
Info: LAST LDB TIMESTEP     -1
Info: HOM BACKGROUND SCALING 1
Info: PME BACKGROUND SCALING 1
Info: MIN ATOMS PER PATCH    40
Info: EMPTY PATCH LOAD       40 ATOMS
Info: VELOCITY FILE          mobley_1967551_equil.vel
Info: CENTER OF MASS MOVING INITIALLY? NO
Info: DIELECTRIC             1
Info: EXCLUDE                SCALED ONE-FOUR
Info: 1-4 ELECTROSTATICS SCALED BY 0.833333
Info: MODIFIED 1-4 VDW PARAMETERS WILL BE USED
Info: DCD FILENAME           mobley_1967551_prod.dcd
Info: DCD FREQUENCY          100000
Info: DCD FIRST STEP         100000
Info: DCD FILE WILL CONTAIN UNIT CELL DATA
Info: XST FILENAME           mobley_1967551_prod.xst
Info: XST FREQUENCY          100000
Info: NO VELOCITY DCD OUTPUT
Info: NO FORCE DCD OUTPUT
Info: OUTPUT FILENAME        mobley_1967551_prod
Info: BINARY OUTPUT FILES WILL BE USED
Info: RESTART FILENAME       mobley_1967551_prod.restart
Info: RESTART FREQUENCY      100000
Info: BINARY RESTART FILES WILL BE USED
Info: CUTOFF                 9
Info: PAIRLIST DISTANCE      11
Info: PAIRLIST SHRINK RATE   0.01
Info: PAIRLIST GROW RATE     0.01
Info: PAIRLIST TRIGGER       0.3
Info: PAIRLISTS PER CYCLE    2
Info: PAIRLISTS ENABLED
Info: MARGIN                 2
Info: HYDROGEN GROUP CUTOFF  2.5
Info: PATCH DIMENSION        15.5
Info: ENERGY OUTPUT STEPS    100000
Info: ENERGY EVALUATION STEPS    100000
Info: OUTPUT ENERGY PRECISION 4
Info: CROSSTERM ENERGY INCLUDED IN DIHEDRAL
Info: TIMING OUTPUT STEPS    1000000
Info: PRESSURE OUTPUT STEPS  100000
Info: ALCHEMICAL FEP ON
Info: FEP CURRENT LAMBDA VALUE     1
Info: FEP COMPARISON LAMBDA VALUE  0.95
Info: FEP INTRA-ALCHEMICAL NON-BONDED INTERACTIONS WILL BE RETAINED
Info: FEP INTRA-ALCHEMICAL BONDED INTERACTIONS WILL BE RETAINED
Info: FEP VDW SHIFTING COEFFICIENT 5
Info: FEP ELEC. ACTIVE FOR ANNIHILATED PARTICLES BETWEEN LAMBDA = 0 AND LAMBDA = 0.5
Info: FEP ELEC. ACTIVE FOR EXNIHILATED PARTICLES BETWEEN LAMBDA = 0.5 AND LAMBDA = 1
Info: FEP VDW ACTIVE FOR ANNIHILATED PARTICLES BETWEEN LAMBDA = 0 AND LAMBDA = 1
Info: FEP VDW ACTIVE FOR EXNIHILATED PARTICLES BETWEEN LAMBDA = 0 AND LAMBDA = 1
Info: FEP BOND ACTIVE FOR ANNIHILATED PARTICLES BETWEEN LAMBDA = 1 AND LAMBDA = 1
Info: FEP BOND ACTIVE FOR EXNIHILATED PARTICLES BETWEEN LAMBDA = 0 AND LAMBDA = 0
Info: LANGEVIN DYNAMICS ACTIVE
Info: LANGEVIN TEMPERATURE   300
Info: LANGEVIN USING BBK INTEGRATOR
Info: LANGEVIN DAMPING COEFFICIENT IS 1 INVERSE PS
Info: LANGEVIN DYNAMICS APPLIED TO HYDROGENS
Info: LANGEVIN PISTON PRESSURE CONTROL ACTIVE
Info:        TARGET PRESSURE IS 1.01325 BAR
Info:     OSCILLATION PERIOD IS 50 FS
Info:             DECAY TIME IS 25 FS
Info:     PISTON TEMPERATURE IS 300 K
Info:       PRESSURE CONTROL IS GROUP-BASED
Info:    INITIAL STRAIN RATE IS 0.00146765 0.00146765 0.00146765
Info:       CELL FLUCTUATION IS ISOTROPIC
Info: PARTICLE MESH EWALD (PME) ACTIVE
Info: PME TOLERANCE               1e-06
Info: PME EWALD COEFFICIENT       0.348832
Info: PME INTERPOLATION ORDER     4
Info: PME GRID DIMENSIONS         32 32 36
Info: PME MAXIMUM GRID SPACING    1
Info: PME CALCULATION WILL BE PERFORMED ON GPU
Info: FULL ELECTROSTATIC EVALUATION FREQUENCY      2
Info: USING VERLET I (r-RESPA) MTS SCHEME.
Info: C1 SPLITTING OF LONG RANGE ELECTROSTATICS
Info: PLACING ATOMS IN PATCHES BY HYDROGEN GROUPS
Info: RIGID BONDS TO HYDROGEN : ALL
Info:         ERROR TOLERANCE : 1e-08
Info:          MAX ITERATIONS : 100
Info: RIGID WATER USING SETTLE ALGORITHM
Info: RANDOM NUMBER SEED     1742372732
Info: USE HYDROGEN BONDS?    NO
Info: Using AMBER format force field!
Info: AMBER PARM FILE        mobley_1967551.prmtop
Info: COORDINATE PDB         mobley_1967551.pdb
Info: Exclusions will be read from PARM file!
Info: SCNB (VDW SCALING)     2
Info: USING ARITHMETIC MEAN TO COMBINE L-J SIGMA PARAMETERS
Info: BINARY COORDINATES     mobley_1967551_equil.coor
Info: SUMMARY OF PARAMETERS:
Info: 6 BONDS
Info: 5 ANGLES
Info:   5 HARMONIC
Info:   0 COSINE-BASED
Info: 4 DIHEDRAL
Info: 0 IMPROPER
Info: 0 CROSSTERM
Info: 0 VDW
Info: 28 VDW_PAIRS
Info: 0 NBTHOLE_PAIRS
Info: To read alchdata from file: mobley_1967551.pdb
Info: To read alchflag data from column: 5
Info: STRUCTURE SUMMARY:
Info: 2992 ATOMS
Info: 2991 BONDS
Info: 9 ANGLES
Info: 10 DIHEDRALS
Info: 0 IMPROPERS
Info: 0 CROSSTERMS
Info: 3006 EXCLUSIONS
Info: 2989 RIGID BONDS
Info: ALCH: 0 ATOMS TO DISAPPEAR IN FINAL STATE
Info: ALCH: 7 ATOMS TO APPEAR IN FINAL STATE
Info: 5987 DEGREES OF FREEDOM
Info: 998 HYDROGEN GROUPS
Info: 4 ATOMS IN LARGEST HYDROGEN GROUP
Info: 998 MIGRATION GROUPS
Info: 4 ATOMS IN LARGEST MIGRATION GROUP
Info: TOTAL MASS = 17970 amu
Info: TOTAL CHARGE = 1.76951e-08 e
Info: MASS DENSITY = 0.965448 g/cm^3
Info: ATOM DENSITY = 0.0968019 atoms/A^3
Info: ADDED 0 IMPLICIT EXCLUSIONS
Info: NONBONDED TABLE R-SQUARED SPACING: 0.0625
Info: NONBONDED TABLE SIZE: 705 POINTS
Info: REMOVING COM VELOCITY 0.0999067 0.137148 0.234508
Info: Use 3D box decompostion in PME FFT.
Info: Updated CUDA force table with 4096 elements.
Info: Updated CUDA LJ table with 7 x 7 elements.
Info: Found 10 unique exclusion lists needing 12 bytes
TCL: Running for 1500000 steps
ETITLE: TS BOND ANGLE DIHED IMPRP ELECT VDW BOUNDARY MISC KINETIC TOTAL TEMP POTENTIAL TOTALAVG TEMPAVG PRESSURE GPRESSURE VOLUME PRESSAVG GPRESSAVG
ENERGY: 0 0.0278 5.8353 19.8235 0.0000 -10857.3732 1412.9569 0.0000 0.0000 1795.8168 -7622.9128 301.8861 -9418.7296 -7622.9128 301.8861 -465.6372 -382.3567 30908.4849 -465.6372 -382.3567
ENERGY: 300000 3.5816 1.8903 22.4000 0.0000 -11036.4920 1544.7161 0.0000 0.0000 1719.8295 -7744.0745 289.1123 -9463.9040 -7648.4163 298.0545 227.6018 309.9233 30974.8196 -144.4797 -75.4001
ENERGY: 600000 0.4286 1.4434 23.1723 0.0000 -10783.3231 1432.6437 0.0000 0.0000 1787.1583 -7538.4769 300.4306 -9325.6352 -7615.0209 299.5856 13.3649 55.4629 30775.7312 -115.2450 -56.3922
ENERGY: 900000 0.2306 1.1948 23.5322 0.0000 -10997.6305 1486.3739 0.0000 0.0000 1766.9975 -7719.3015 297.0414 -9486.2990 -7627.7258 298.5311 68.7112 153.7253 30611.2045 -217.5660 -156.6539
ENERGY: 1200000 0.2399 7.4634 21.6902 0.0000 -10998.2590 1528.7060 0.0000 0.0000 1794.0602 -7646.0994 301.5908 -9440.1595 -7617.3823 299.7613 315.3322 309.0308 30816.5962 -86.0914 -28.8488
ENERGY: 1500000 0.4017 1.7396 22.1853 0.0000 -10930.2370 1484.8814 0.0000 0.0000 1761.5277 -7659.5013 296.1219 -9421.0290 -7619.3388 299.6155 207.3383 198.8859 30703.2035 -69.8344 -12.6878
TCL: Running FEP window   2: Lambda1 0.95   Lambda2 0.8999999999999999 [dLambda -0.050000000000000044]
TCL: Setting parameter firsttimestep to 0
TCL: Setting parameter alchLambda to 0.95
Info: NONBONDED TABLE R-SQUARED SPACING: 0.0625
Info: NONBONDED TABLE SIZE: 705 POINTS
TCL: Setting parameter alchLambda2 to 0.8999999999999999
Info: NONBONDED TABLE R-SQUARED SPACING: 0.0625
Info: NONBONDED TABLE SIZE: 705 POINTS
TCL: Running for 1500000 steps
ETITLE: TS BOND ANGLE DIHED IMPRP ELECT VDW BOUNDARY MISC KINETIC TOTAL TEMP POTENTIAL TOTALAVG TEMPAVG PRESSURE GPRESSURE VOLUME PRESSAVG GPRESSAVG
ENERGY: 0 0.4017 1.7396 22.1853 0.0000 -10928.9789 1484.5426 0.0000 0.0000 1760.6174 -7659.4923 295.9689 -9420.1097 -7659.4923 295.9689 111.4877 190.3124 30703.2035 111.4877 190.3124
ENERGY: 300000 0.5813 5.4062 21.1883 0.0000 -10981.9819 1528.1608 0.0000 0.0000 1759.9841 -7666.6612 295.8625 -9426.6453 -7622.8483 301.1705 420.2866 470.4085 30817.8650 417.6948 488.5795
ENERGY: 600000 1.8721 3.4073 22.4597 0.0000 -10842.7558 1437.0021 0.0000 0.0000 1783.7124 -7594.3022 299.8513 -9378.0146 -7611.8786 299.8267 -147.8812 -82.8731 30813.6719 193.0873 253.8056
ENERGY: 900000 1.4074 3.1931 21.1474 0.0000 -10846.1646 1427.8965 0.0000 0.0000 1825.3004 -7567.2197 306.8425 -9392.5201 -7616.3124 300.6515 -74.2407 -35.6276 30579.8464 271.4954 327.4288
ENERGY: 1200000 0.1115 2.4533 23.5703 0.0000 -10899.1447 1508.3335 0.0000 0.0000 1768.6342 -7596.0421 297.3166 -9364.6763 -7614.9357 300.8946 279.1709 366.5140 31025.0077 287.9648 349.8379
ENERGY: 1500000 0.9491 1.7299 22.7715 0.0000 -10848.1514 1448.8171 0.0000 0.0000 1787.0938 -7586.7900 300.4197 -9373.8838 -7612.2963 300.9752 234.5515 268.6550 30422.6859 214.8809 278.1835
TCL: Running FEP window   3: Lambda1 0.8999999999999999 Lambda2 0.8499999999999999 [dLambda -0.050000000000000044]
TCL: Setting parameter firsttimestep to 0
TCL: Setting parameter alchLambda to 0.8999999999999999
Info: NONBONDED TABLE R-SQUARED SPACING: 0.0625
Info: NONBONDED TABLE SIZE: 705 POINTS
TCL: Setting parameter alchLambda2 to 0.8499999999999999
Info: NONBONDED TABLE R-SQUARED SPACING: 0.0625
Info: NONBONDED TABLE SIZE: 705 POINTS
TCL: Running for 1500000 steps
ETITLE: TS BOND ANGLE DIHED IMPRP ELECT VDW BOUNDARY MISC KINETIC TOTAL TEMP POTENTIAL TOTALAVG TEMPAVG PRESSURE GPRESSURE VOLUME PRESSAVG GPRESSAVG
ENERGY: 0 0.9491 1.7299 22.7715 0.0000 -10846.9478 1448.2669 0.0000 0.0000 1786.1791 -7587.0513 300.2660 -9373.2303 -7587.0513 300.2660 199.4141 262.1657 30422.6859 199.4141 262.1657
ENERGY: 300000 0.5503 2.1238 23.0118 0.0000 -10940.3186 1509.9841 0.0000 0.0000 1820.3910 -7584.2576 306.0172 -9404.6486 -7570.6508 301.4019 49.6586 166.7850 31101.2338 -31.1542 35.5208
ENERGY: 600000 0.3692 2.2841 22.9032 0.0000 -11016.7192 1515.2371 0.0000 0.0000 1806.6810 -7669.2446 303.7125 -9475.9256 -7583.2737 301.4013 46.1877 38.5929 31173.3596 51.6130 108.6690
ENERGY: 900000 0.1138 1.3411 23.5505 0.0000 -11053.2107 1592.2678 0.0000 0.0000 1836.7433 -7599.1942 308.7661 -9435.9375 -7581.3434 301.7582 1189.8862 1259.0163 30368.4577 126.9421 185.5134
ENERGY: 1200000 0.2848 5.2360 20.4865 0.0000 -10943.6441 1541.4737 0.0000 0.0000 1771.7721 -7604.3911 297.8441 -9376.1632 -7579.2305 302.0365 825.3450 822.1511 30495.9792 194.3731 251.0703
ENERGY: 1500000 0.2715 3.2583 22.9440 0.0000 -10971.5689 1483.9806 0.0000 0.0000 1861.1737 -7599.9407 312.8730 -9461.1144 -7592.6709 302.4201 -117.4329 -18.7086 30890.9441 198.1906 258.6212
TCL: Running FEP window   4: Lambda1 0.8499999999999999 Lambda2 0.7999999999999998 [dLambda -0.050000000000000044]
TCL: Setting parameter firsttimestep to 0
TCL: Setting parameter alchLambda to 0.8499999999999999
Info: NONBONDED TABLE R-SQUARED SPACING: 0.0625
Info: NONBONDED TABLE SIZE: 705 POINTS
TCL: Setting parameter alchLambda2 to 0.7999999999999998
Info: NONBONDED TABLE R-SQUARED SPACING: 0.0625
Info: NONBONDED TABLE SIZE: 705 POINTS
TCL: Running for 1500000 steps
ETITLE: TS BOND ANGLE DIHED IMPRP ELECT VDW BOUNDARY MISC KINETIC TOTAL TEMP POTENTIAL TOTALAVG TEMPAVG PRESSURE GPRESSURE VOLUME PRESSAVG GPRESSAVG
ENERGY: 0 0.2715 3.2583 22.9440 0.0000 -10969.6737 1482.9906 0.0000 0.0000 1860.2587 -7599.9506 312.7191 -9460.2093 -7599.9506 312.7191 -115.4753 -32.1169 30890.9441 -115.4753 -32.1169
ENERGY: 300000 0.2352 3.5769 21.4686 0.0000 -10857.1793 1451.7859 0.0000 0.0000 1802.1704 -7577.9422 302.9542 -9380.1126 -7624.7310 304.0989 -56.8367 63.7984 30697.7948 50.0540 139.9324
ENERGY: 600000 1.3525 3.3563 21.9021 0.0000 -10905.7334 1455.0768 0.0000 0.0000 1749.4636 -7674.5819 294.0939 -9424.0456 -7632.2690 299.8519 -115.5092 -84.0611 30459.6038 -68.9336 2.7182
ENERGY: 900000 0.0788 3.4374 23.2876 0.0000 -10788.4865 1392.8285 0.0000 0.0000 1811.3463 -7557.5079 304.4967 -9368.8542 -7620.0524 300.2169 -645.3568 -594.0423 31637.1318 -185.1963 -118.4202
ENERGY: 1200000 0.5576 0.9996 21.6934 0.0000 -10933.6931 1484.2021 0.0000 0.0000 1744.5609 -7681.6795 293.2697 -9426.2404 -7616.0852 299.6972 164.3458 205.6994 30559.6611 -179.7509 -113.1843
ENERGY: 1500000 0.3113 1.3913 26.1778 0.0000 -11060.9612 1565.2203 0.0000 0.0000 1757.1767 -7710.6838 295.3905 -9467.8605 -7622.7306 299.6400 388.2063 476.4404 30953.8646 -85.7901 -21.0487
TCL: Running FEP window   5: Lambda1 0.7999999999999998 Lambda2 0.7499999999999998 [dLambda -0.050000000000000044]
TCL: Setting parameter firsttimestep to 0
TCL: Setting parameter alchLambda to 0.7999999999999998
Info: NONBONDED TABLE R-SQUARED SPACING: 0.0625
Info: NONBONDED TABLE SIZE: 705 POINTS
TCL: Setting parameter alchLambda2 to 0.7499999999999998
Info: NONBONDED TABLE R-SQUARED SPACING: 0.0625
Info: NONBONDED TABLE SIZE: 705 POINTS
TCL: Running for 1500000 steps
ETITLE: TS BOND ANGLE DIHED IMPRP ELECT VDW BOUNDARY MISC KINETIC TOTAL TEMP POTENTIAL TOTALAVG TEMPAVG PRESSURE GPRESSURE VOLUME PRESSAVG GPRESSAVG
ENERGY: 0 0.3113 1.3913 26.1778 0.0000 -11058.6375 1563.9091 0.0000 0.0000 1756.2744 -7710.5736 295.2388 -9466.8480 -7710.5736 295.2388 383.2796 466.6121 30953.8646 383.2796 466.6121
ENERGY: 300000 0.1789 1.9754 24.1248 0.0000 -10876.6695 1481.1388 0.0000 0.0000 1818.2750 -7550.9767 305.6615 -9369.2517 -7611.3267 300.2619 82.4161 161.1482 31153.5405 -55.6923 5.5035
ENERGY: 600000 0.4913 2.4963 22.7234 0.0000 -10891.6741 1497.1176 0.0000 0.0000 1787.4441 -7581.4014 300.4786 -9368.8455 -7601.0198 300.9971 230.3780 334.8214 30937.8852 40.7108 100.8147
ENERGY: 900000 0.6197 1.5292 23.1197 0.0000 -10909.6490 1520.0272 0.0000 0.0000 1825.8770 -7538.4763 306.9394 -9364.3533 -7595.8160 302.4338 339.3617 406.3609 31188.3031 102.3824 167.2477
ENERGY: 1200000 0.6117 3.0249 21.1999 0.0000 -10879.8461 1446.6715 0.0000 0.0000 1778.7159 -7629.6222 299.0114 -9408.3381 -7592.0742 302.3469 -189.1059 -153.7139 30782.9231 11.7473 72.3763
ENERGY: 1500000 0.4029 3.4475 22.1630 0.0000 -11002.0761 1548.4876 0.0000 0.0000 1781.7411 -7645.8340 299.5199 -9427.5751 -7591.0594 301.7652 405.0475 460.2020 31274.3589 62.5386 118.9732
TCL: Running FEP window   6: Lambda1 0.7499999999999998 Lambda2 0.6999999999999997 [dLambda -0.050000000000000044]
TCL: Setting parameter firsttimestep to 0
TCL: Setting parameter alchLambda to 0.7499999999999998
Info: NONBONDED TABLE R-SQUARED SPACING: 0.0625
Info: NONBONDED TABLE SIZE: 705 POINTS
TCL: Setting parameter alchLambda2 to 0.6999999999999997
Info: NONBONDED TABLE R-SQUARED SPACING: 0.0625
Info: NONBONDED TABLE SIZE: 705 POINTS
TCL: Running for 1500000 steps
ETITLE: TS BOND ANGLE DIHED IMPRP ELECT VDW BOUNDARY MISC KINETIC TOTAL TEMP POTENTIAL TOTALAVG TEMPAVG PRESSURE GPRESSURE VOLUME PRESSAVG GPRESSAVG
ENERGY: 0 0.4029 3.4475 22.1630 0.0000 -11000.9471 1547.9556 0.0000 0.0000 1780.9060 -7646.0721 299.3795 -9426.9781 -7646.0721 299.3795 380.8268 452.6359 31274.3589 380.8268 452.6359
ENERGY: 300000 3.0050 2.6361 22.7709 0.0000 -10911.4769 1431.9864 0.0000 0.0000 1793.3534 -7657.7252 301.4720 -9451.0786 -7619.3059 300.9740 -479.8412 -389.1415 31184.8162 -185.4054 -124.6991
ENERGY: 600000 0.3167 3.8682 24.6920 0.0000 -10909.9937 1463.1915 0.0000 0.0000 1824.1617 -7593.7636 306.6510 -9417.9253 -7614.3499 301.4019 -145.0401 -68.4955 30940.6503 -88.5029 -17.9965
ENERGY: 900000 0.5739 1.8971 21.7855 0.0000 -10837.1404 1453.0002 0.0000 0.0000 1787.5640 -7572.3197 300.4988 -9359.8837 -7608.3188 300.7673 -325.1069 -258.9462 31258.0234 -219.8061 -151.2849
ENERGY: 1200000 0.0071 3.3517 21.6525 0.0000 -10810.2416 1410.8234 0.0000 0.0000 1788.3554 -7586.0516 300.6318 -9374.4069 -7598.1207 301.9497 -497.3374 -460.4611 31397.1625 -100.5833 -39.5149
ENERGY: 1500000 0.8140 2.9644 22.8421 0.0000 -10694.1647 1360.0713 0.0000 0.0000 1783.3393 -7524.1335 299.7886 -9307.4728 -7595.2404 302.2248 -763.4637 -718.7889 31649.8089 -164.8251 -105.8490
TCL: Running FEP window   7: Lambda1 0.6999999999999997 Lambda2 0.6499999999999997 [dLambda -0.050000000000000044]
TCL: Setting parameter firsttimestep to 0
TCL: Setting parameter alchLambda to 0.6999999999999997
Info: NONBONDED TABLE R-SQUARED SPACING: 0.0625
Info: NONBONDED TABLE SIZE: 705 POINTS
TCL: Setting parameter alchLambda2 to 0.6499999999999997
Info: NONBONDED TABLE R-SQUARED SPACING: 0.0625
Info: NONBONDED TABLE SIZE: 705 POINTS
TCL: Running for 1500000 steps
ETITLE: TS BOND ANGLE DIHED IMPRP ELECT VDW BOUNDARY MISC KINETIC TOTAL TEMP POTENTIAL TOTALAVG TEMPAVG PRESSURE GPRESSURE VOLUME PRESSAVG GPRESSAVG
ENERGY: 0 0.8140 2.9644 22.8421 0.0000 -10692.7366 1359.5063 0.0000 0.0000 1782.4567 -7524.1530 299.6402 -9306.6097 -7524.1530 299.6402 -803.2986 -727.3082 31649.8089 -803.2986 -727.3082
ENERGY: 300000 0.2127 0.9075 23.4282 0.0000 -10915.3953 1472.3474 0.0000 0.0000 1791.0899 -7627.4095 301.0915 -9418.4995 -7576.8010 300.8135 173.2429 166.1185 30516.6681 -170.6343 -118.3985
ENERGY: 600000 0.0792 2.0254 22.1226 0.0000 -10686.5649 1356.5793 0.0000 0.0000 1833.7221 -7472.0363 308.2582 -9305.7584 -7567.2164 299.5508 -552.2989 -601.7318 31140.7738 -238.3179 -207.3756
ENERGY: 900000 0.3624 3.5655 22.6332 0.0000 -10851.3870 1444.5988 0.0000 0.0000 1777.3260 -7602.9011 298.7777 -9380.2271 -7598.6067 299.6702 -141.9603 -97.3981 30859.2989 -86.2231 -53.3224
ENERGY: 1200000 0.6431 1.4455 22.3415 0.0000 -10889.9746 1475.3002 0.0000 0.0000 1792.2241 -7598.0201 301.2822 -9390.2442 -7599.6255 299.5112 57.5901 157.6566 30655.8809 -42.9041 3.2436
ENERGY: 1500000 0.3482 4.6525 22.2589 0.0000 -10787.3601 1457.0122 0.0000 0.0000 1823.3544 -7479.7339 306.5153 -9303.0883 -7606.0888 299.2699 240.8746 300.1337 30965.3616 -70.6336 -15.6296
TCL: Running FEP window   8: Lambda1 0.6499999999999997 Lambda2 0.5999999999999996 [dLambda -0.050000000000000044]
TCL: Setting parameter firsttimestep to 0
TCL: Setting parameter alchLambda to 0.6499999999999997
Info: NONBONDED TABLE R-SQUARED SPACING: 0.0625
Info: NONBONDED TABLE SIZE: 705 POINTS
TCL: Setting parameter alchLambda2 to 0.5999999999999996
Info: NONBONDED TABLE R-SQUARED SPACING: 0.0625
Info: NONBONDED TABLE SIZE: 705 POINTS
TCL: Running for 1500000 steps
ETITLE: TS BOND ANGLE DIHED IMPRP ELECT VDW BOUNDARY MISC KINETIC TOTAL TEMP POTENTIAL TOTALAVG TEMPAVG PRESSURE GPRESSURE VOLUME PRESSAVG GPRESSAVG
ENERGY: 0 0.3482 4.6525 22.2589 0.0000 -10786.6670 1456.9220 0.0000 0.0000 1822.4695 -7480.0158 306.3666 -9302.4853 -7480.0158 306.3666 233.6472 294.7287 30965.3616 233.6472 294.7287
ENERGY: 300000 1.0549 2.8978 20.9892 0.0000 -10820.4940 1398.0405 0.0000 0.0000 1764.5497 -7632.9619 296.6300 -9397.5116 -7567.8691 299.7389 -560.2393 -455.3776 30677.0444 -74.7146 -11.2295
ENERGY: 600000 0.2833 2.5381 21.7579 0.0000 -10779.6594 1379.1225 0.0000 0.0000 1783.3554 -7592.6023 299.7913 -9375.9577 -7597.3026 297.5552 -580.2817 -464.5364 30516.6625 -190.2673 -109.9337
ENERGY: 900000 0.0988 3.7237 20.5274 0.0000 -10710.8652 1354.5713 0.0000 0.0000 1804.7239 -7527.2201 303.3835 -9331.9440 -7595.8076 298.8399 -843.1620 -788.7825 31401.9390 -259.4627 -184.3028
ENERGY: 1200000 1.5839 1.8869 22.2125 0.0000 -10842.0472 1491.4826 0.0000 0.0000 1720.6836 -7604.1976 289.2558 -9324.8812 -7597.2228 296.9594 400.5146 364.0050 31194.3224 -142.5472 -78.9982
ENERGY: 1500000 1.8435 1.9178 23.6510 0.0000 -10805.3386 1393.4465 0.0000 0.0000 1814.0907 -7570.3892 304.9581 -9384.4798 -7591.2949 298.3737 -754.7086 -689.2647 31424.5238 -174.5880 -109.6145
TCL: Running FEP window   9: Lambda1 0.5999999999999996 Lambda2 0.5499999999999996 [dLambda -0.050000000000000044]
TCL: Setting parameter firsttimestep to 0
TCL: Setting parameter alchLambda to 0.5999999999999996
Info: NONBONDED TABLE R-SQUARED SPACING: 0.0625
Info: NONBONDED TABLE SIZE: 705 POINTS
TCL: Setting parameter alchLambda2 to 0.5499999999999996
Info: NONBONDED TABLE R-SQUARED SPACING: 0.0625
Info: NONBONDED TABLE SIZE: 705 POINTS
TCL: Running for 1500000 steps
ETITLE: TS BOND ANGLE DIHED IMPRP ELECT VDW BOUNDARY MISC KINETIC TOTAL TEMP POTENTIAL TOTALAVG TEMPAVG PRESSURE GPRESSURE VOLUME PRESSAVG GPRESSAVG
ENERGY: 0 1.8435 1.9178 23.6510 0.0000 -10804.9919 1393.7580 0.0000 0.0000 1813.2115 -7570.6100 304.8103 -9383.8215 -7570.6100 304.8103 -758.7078 -689.1831 31424.5238 -758.7078 -689.1831
ENERGY: 300000 1.3057 4.9904 20.2387 0.0000 -10980.6787 1518.1936 0.0000 0.0000 1744.3193 -7691.6309 293.2291 -9435.9502 -7593.9854 299.0697 176.9745 228.9291 30765.9760 -158.6019 -112.3009
ENERGY: 600000 0.1004 1.2510 22.8517 0.0000 -10827.0439 1382.6453 0.0000 0.0000 1795.4021 -7624.7935 301.8164 -9420.1956 -7593.4990 301.4037 -660.9234 -649.1757 30687.2158 -273.6804 -228.1645
ENERGY: 900000 0.1907 6.6226 22.6771 0.0000 -10852.7727 1439.0072 0.0000 0.0000 1798.6463 -7585.6287 302.3618 -9384.2751 -7593.9398 301.2931 -361.5838 -321.3109 31142.5813 -330.2733 -269.7278
ENERGY: 1200000 0.9312 2.3393 23.4903 0.0000 -10948.3868 1490.8675 0.0000 0.0000 1819.5987 -7611.1596 305.8840 -9430.7584 -7586.6992 301.8440 221.8127 238.7574 30587.7701 -279.9089 -217.8252
ENERGY: 1500000 0.0759 6.8809 19.4471 0.0000 -10915.4257 1461.8937 0.0000 0.0000 1809.9979 -7617.1302 304.2700 -9427.1281 -7590.4607 301.4050 67.1955 175.6754 30525.5979 -254.9905 -195.3354
TCL: Running FEP window  10: Lambda1 0.5499999999999996 Lambda2 0.4999999999999996 [dLambda -0.04999999999999999]
TCL: Setting parameter firsttimestep to 0
TCL: Setting parameter alchLambda to 0.5499999999999996
Info: NONBONDED TABLE R-SQUARED SPACING: 0.0625
Info: NONBONDED TABLE SIZE: 705 POINTS
TCL: Setting parameter alchLambda2 to 0.4999999999999996
Info: NONBONDED TABLE R-SQUARED SPACING: 0.0625
Info: NONBONDED TABLE SIZE: 705 POINTS
TCL: Running for 1500000 steps
ETITLE: TS BOND ANGLE DIHED IMPRP ELECT VDW BOUNDARY MISC KINETIC TOTAL TEMP POTENTIAL TOTALAVG TEMPAVG PRESSURE GPRESSURE VOLUME PRESSAVG GPRESSAVG
ENERGY: 0 0.0759 6.8809 19.4471 0.0000 -10914.8630 1462.2337 0.0000 0.0000 1809.1080 -7617.1174 304.1204 -9426.2254 -7617.1174 304.1204 77.1965 173.0544 30525.5979 77.1965 173.0544
ENERGY: 300000 0.8790 3.0033 21.6805 0.0000 -10961.5349 1494.5513 0.0000 0.0000 1786.0808 -7655.3400 300.2495 -9441.4208 -7671.5234 297.7130 68.5131 86.9944 30578.1458 121.4524 201.6929
ENERGY: 600000 0.7951 5.0278 23.0721 0.0000 -10911.3762 1477.2951 0.0000 0.0000 1811.2859 -7593.9002 304.4866 -9405.1861 -7624.7505 299.3892 474.4482 544.8714 30107.9979 150.4275 218.2194
ENERGY: 900000 0.2635 1.7588 23.5549 0.0000 -10832.9483 1396.8344 0.0000 0.0000 1740.7442 -7669.7924 292.6281 -9410.5366 -7627.2860 300.2972 -597.5420 -514.6140 30693.7927 103.6315 169.4629
ENERGY: 1200000 0.4342 2.1100 21.3124 0.0000 -10843.2801 1413.5924 0.0000 0.0000 1820.9590 -7584.8722 306.1127 -9405.8312 -7617.9242 301.1750 -647.8328 -553.8798 30974.4400 -3.6905 66.1362
ENERGY: 1500000 2.1036 3.8759 21.6297 0.0000 -11048.6382 1557.0106 0.0000 0.0000 1756.2122 -7707.8062 295.2284 -9464.0183 -7622.9812 300.4144 511.4646 562.6880 30737.3534 5.5834 69.3323
TCL: Running FEP window  11: Lambda1 0.4999999999999996 Lambda2 0.4499999999999996 [dLambda -0.04999999999999999]
TCL: Setting parameter firsttimestep to 0
TCL: Setting parameter alchLambda to 0.4999999999999996
Info: NONBONDED TABLE R-SQUARED SPACING: 0.0625
Info: NONBONDED TABLE SIZE: 705 POINTS
TCL: Setting parameter alchLambda2 to 0.4499999999999996
Info: NONBONDED TABLE R-SQUARED SPACING: 0.0625
Info: NONBONDED TABLE SIZE: 705 POINTS
TCL: Running for 1500000 steps
ETITLE: TS BOND ANGLE DIHED IMPRP ELECT VDW BOUNDARY MISC KINETIC TOTAL TEMP POTENTIAL TOTALAVG TEMPAVG PRESSURE GPRESSURE VOLUME PRESSAVG GPRESSAVG
ENERGY: 0 2.1036 3.8759 21.6297 0.0000 -11048.4240 1557.2287 0.0000 0.0000 1755.2393 -7708.3467 295.0648 -9463.5860 -7708.3467 295.0648 478.0029 561.5900 30737.3534 478.0029 561.5900
ENERGY: 300000 0.3222 3.9818 22.0626 0.0000 -10900.8137 1461.2583 0.0000 0.0000 1826.3738 -7586.8151 307.0229 -9413.1888 -7626.1319 301.5422 -187.4277 -132.5284 31045.6350 45.2759 125.6583
ENERGY: 600000 0.1594 3.2338 21.3494 0.0000 -10881.1881 1417.4918 0.0000 0.0000 1767.4005 -7671.5530 297.1092 -9438.9536 -7622.9962 302.3969 -525.4953 -469.9371 30604.3298 67.0314 137.1178
ENERGY: 900000 0.4791 1.7978 24.2817 0.0000 -10881.4499 1449.7176 0.0000 0.0000 1794.0568 -7611.1170 301.5903 -9405.1737 -7618.0323 301.7895 -212.0648 -153.6167 30808.0792 10.8005 82.2902
ENERGY: 1200000 0.4927 3.3617 23.0101 0.0000 -10931.0877 1573.1595 0.0000 0.0000 1752.3648 -7578.6990 294.5816 -9331.0638 -7606.6069 301.8789 1146.9774 1220.1715 30295.3508 33.3371 109.8384
ENERGY: 1500000 1.0815 8.1656 20.6783 0.0000 -10912.4925 1489.1257 0.0000 0.0000 1756.2092 -7637.2321 295.2279 -9393.4413 -7620.6858 301.2001 246.0480 265.9981 30695.5178 54.1572 129.2871
TCL: Running FEP window  12: Lambda1 0.4499999999999996 Lambda2 0.39999999999999963 [dLambda -0.04999999999999999]
TCL: Setting parameter firsttimestep to 0
TCL: Setting parameter alchLambda to 0.4499999999999996
Info: NONBONDED TABLE R-SQUARED SPACING: 0.0625
Info: NONBONDED TABLE SIZE: 705 POINTS
TCL: Setting parameter alchLambda2 to 0.39999999999999963
Info: NONBONDED TABLE R-SQUARED SPACING: 0.0625
Info: NONBONDED TABLE SIZE: 705 POINTS
TCL: Running for 1500000 steps
ETITLE: TS BOND ANGLE DIHED IMPRP ELECT VDW BOUNDARY MISC KINETIC TOTAL TEMP POTENTIAL TOTALAVG TEMPAVG PRESSURE GPRESSURE VOLUME PRESSAVG GPRESSAVG
ENERGY: 0 1.0815 8.1656 20.6783 0.0000 -10912.4935 1489.4355 0.0000 0.0000 1755.3291 -7637.8034 295.0799 -9393.1325 -7637.8034 295.0799 183.6555 262.4996 30695.5178 183.6555 262.4996
ENERGY: 300000 0.4721 6.4030 23.0273 0.0000 -10863.8992 1536.0977 0.0000 0.0000 1778.8850 -7519.0140 299.0398 -9297.8990 -7618.7454 298.0166 604.8557 672.1331 31156.4385 436.9552 490.3391
ENERGY: 600000 0.7543 5.6785 22.2104 0.0000 -10902.9918 1465.5243 0.0000 0.0000 1822.5756 -7586.2486 306.3844 -9408.8242 -7606.4449 298.8110 -166.8999 -90.4453 30957.9485 97.1765 166.2507
ENERGY: 900000 0.8856 3.5608 20.6065 0.0000 -10940.3394 1495.3158 0.0000 0.0000 1760.9855 -7658.9852 296.0308 -9419.9707 -7611.3874 298.3170 226.2573 235.9777 30837.6151 34.5169 100.0821
ENERGY: 1200000 0.6406 1.6478 23.1731 0.0000 -11082.6687 1529.3405 0.0000 0.0000 1785.0579 -7742.8088 300.0775 -9527.8667 -7610.8190 299.7320 -112.5394 5.6490 30718.3243 57.0783 130.0184
ENERGY: 1500000 0.5010 1.9315 21.3368 0.0000 -10791.0130 1360.8871 0.0000 0.0000 1790.9380 -7615.4185 301.0660 -9406.3565 -7609.7775 299.7968 -700.8356 -561.6454 30216.8162 6.2564 84.6063
TCL: Running FEP window  13: Lambda1 0.39999999999999963 Lambda2 0.34999999999999964 [dLambda -0.04999999999999999]
TCL: Setting parameter firsttimestep to 0
TCL: Setting parameter alchLambda to 0.39999999999999963
Info: NONBONDED TABLE R-SQUARED SPACING: 0.0625
Info: NONBONDED TABLE SIZE: 705 POINTS
TCL: Setting parameter alchLambda2 to 0.34999999999999964
Info: NONBONDED TABLE R-SQUARED SPACING: 0.0625
Info: NONBONDED TABLE SIZE: 705 POINTS
TCL: Running for 1500000 steps
ETITLE: TS BOND ANGLE DIHED IMPRP ELECT VDW BOUNDARY MISC KINETIC TOTAL TEMP POTENTIAL TOTALAVG TEMPAVG PRESSURE GPRESSURE VOLUME PRESSAVG GPRESSAVG
ENERGY: 0 0.5010 1.9315 21.3368 0.0000 -10791.0115 1360.8996 0.0000 0.0000 1790.0408 -7616.3018 300.9152 -9406.3427 -7616.3018 300.9152 -651.6802 -564.1243 30216.8162 -651.6802 -564.1243
ENERGY: 300000 0.3037 0.5826 22.7355 0.0000 -10895.6853 1428.4288 0.0000 0.0000 1769.5179 -7674.1168 297.4651 -9443.6347 -7630.5274 299.8280 -313.5772 -264.2231 30676.8209 -257.6498 -212.5454
ENERGY: 600000 0.6564 2.0039 21.9361 0.0000 -10918.8127 1484.5303 0.0000 0.0000 1753.4542 -7656.2318 294.7648 -9409.6860 -7619.7687 299.4376 170.3562 272.3141 30480.8856 -105.0648 -62.9497
ENERGY: 900000 0.1636 2.9367 21.1885 0.0000 -11013.4326 1541.6666 0.0000 0.0000 1835.6929 -7611.7842 308.5895 -9447.4771 -7608.1824 300.4043 394.4651 446.1634 30845.1336 -74.8758 -27.8686
ENERGY: 1200000 0.0306 1.2486 22.4816 0.0000 -10955.7169 1511.9262 0.0000 0.0000 1760.3284 -7659.7014 295.9203 -9420.0299 -7620.7574 299.8785 414.6390 452.4768 30350.0918 10.4818 52.2171
ENERGY: 1500000 0.4783 4.0132 21.8915 0.0000 -10780.3358 1399.7312 0.0000 0.0000 1718.7085 -7635.5130 288.9238 -9354.2215 -7616.3281 299.4473 -536.4515 -470.4803 30918.9289 -56.8908 -13.4053
TCL: Running FEP window  14: Lambda1 0.34999999999999964 Lambda2 0.29999999999999966 [dLambda -0.04999999999999999]
TCL: Setting parameter firsttimestep to 0
TCL: Setting parameter alchLambda to 0.34999999999999964
Info: NONBONDED TABLE R-SQUARED SPACING: 0.0625
Info: NONBONDED TABLE SIZE: 705 POINTS
TCL: Setting parameter alchLambda2 to 0.29999999999999966
Info: NONBONDED TABLE R-SQUARED SPACING: 0.0625
Info: NONBONDED TABLE SIZE: 705 POINTS
TCL: Running for 1500000 steps
ETITLE: TS BOND ANGLE DIHED IMPRP ELECT VDW BOUNDARY MISC KINETIC TOTAL TEMP POTENTIAL TOTALAVG TEMPAVG PRESSURE GPRESSURE VOLUME PRESSAVG GPRESSAVG
ENERGY: 0 0.4783 4.0132 21.8915 0.0000 -10780.3343 1399.9697 0.0000 0.0000 1717.8409 -7636.1406 288.7780 -9353.9816 -7636.1406 288.7780 -548.2343 -471.7822 30918.9289 -548.2343 -471.7822
ENERGY: 300000 0.0352 0.2757 23.6217 0.0000 -10881.0966 1412.5871 0.0000 0.0000 1797.7575 -7646.8193 302.2124 -9444.5768 -7628.8169 298.8267 -560.6670 -485.0258 30603.1837 -125.3353 -73.0752
ENERGY: 600000 0.3027 2.7579 23.0342 0.0000 -10874.9641 1412.3924 0.0000 0.0000 1759.9169 -7676.5600 295.8512 -9436.4769 -7642.1790 297.7379 -250.2917 -230.8007 30123.1477 -127.5730 -69.1015
ENERGY: 900000 0.7756 1.6286 23.2223 0.0000 -10896.5499 1500.6788 0.0000 0.0000 1765.8203 -7604.4243 296.8436 -9370.2446 -7631.2811 298.4571 429.0993 475.6123 30612.9472 -50.6147 13.3861
ENERGY: 1200000 0.6962 0.6909 22.9368 0.0000 -10769.8767 1385.8957 0.0000 0.0000 1779.0570 -7580.6002 299.0687 -9359.6571 -7625.5254 298.9801 -661.4161 -543.5767 30838.0173 -118.3142 -49.2738
ENERGY: 1500000 0.4500 5.3191 23.0512 0.0000 -11011.6500 1573.6310 0.0000 0.0000 1789.9778 -7619.2209 300.9046 -9409.1987 -7621.7110 299.5082 1012.1933 1023.8510 30270.3869 -20.1084 49.3792
TCL: Running FEP window  15: Lambda1 0.29999999999999966 Lambda2 0.24999999999999967 [dLambda -0.04999999999999999]
TCL: Setting parameter firsttimestep to 0
TCL: Setting parameter alchLambda to 0.29999999999999966
Info: NONBONDED TABLE R-SQUARED SPACING: 0.0625
Info: NONBONDED TABLE SIZE: 705 POINTS
TCL: Setting parameter alchLambda2 to 0.24999999999999967
Info: NONBONDED TABLE R-SQUARED SPACING: 0.0625
Info: NONBONDED TABLE SIZE: 705 POINTS
TCL: Running for 1500000 steps
ETITLE: TS BOND ANGLE DIHED IMPRP ELECT VDW BOUNDARY MISC KINETIC TOTAL TEMP POTENTIAL TOTALAVG TEMPAVG PRESSURE GPRESSURE VOLUME PRESSAVG GPRESSAVG
ENERGY: 0 0.4500 5.3191 23.0512 0.0000 -11011.6507 1573.5052 0.0000 0.0000 1789.0439 -7620.2812 300.7476 -9409.3251 -7620.2812 300.7476 927.2752 1022.6433 30270.3869 927.2752 1022.6433
ENERGY: 300000 0.0913 1.3742 22.9335 0.0000 -10867.0838 1435.9412 0.0000 0.0000 1789.7851 -7616.9587 300.8722 -9406.7438 -7648.4289 296.9939 -288.8792 -225.2464 30945.5017 305.6280 355.5534
ENERGY: 600000 0.1825 2.7310 23.0680 0.0000 -10820.9320 1464.6727 0.0000 0.0000 1858.7070 -7471.5707 312.4583 -9330.2777 -7632.1283 298.5445 447.4820 499.8326 30482.0573 246.8910 307.0142
ENERGY: 900000 0.5131 2.7051 21.2939 0.0000 -10947.4025 1477.1905 0.0000 0.0000 1791.2688 -7654.4312 301.1216 -9445.7000 -7622.4069 300.3620 -180.2833 -83.3572 30801.9084 308.8894 362.8797
ENERGY: 1200000 0.0644 2.2809 21.0490 0.0000 -10813.1194 1373.2408 0.0000 0.0000 1765.7972 -7650.6871 296.8397 -9416.4843 -7626.1220 300.3241 -846.4857 -823.1862 31133.0193 178.6437 229.6672
ENERGY: 1500000 0.1557 2.2971 23.6150 0.0000 -10979.6030 1510.9490 0.0000 0.0000 1784.5302 -7658.0560 299.9888 -9442.5862 -7635.3598 299.7404 525.1866 574.3935 30041.1732 146.9589 199.8065
TCL: Running FEP window  16: Lambda1 0.24999999999999967 Lambda2 0.19999999999999968 [dLambda -0.04999999999999999]
TCL: Setting parameter firsttimestep to 0
TCL: Setting parameter alchLambda to 0.24999999999999967
Info: NONBONDED TABLE R-SQUARED SPACING: 0.0625
Info: NONBONDED TABLE SIZE: 705 POINTS
TCL: Setting parameter alchLambda2 to 0.19999999999999968
Info: NONBONDED TABLE R-SQUARED SPACING: 0.0625
Info: NONBONDED TABLE SIZE: 705 POINTS
TCL: Running for 1500000 steps
ETITLE: TS BOND ANGLE DIHED IMPRP ELECT VDW BOUNDARY MISC KINETIC TOTAL TEMP POTENTIAL TOTALAVG TEMPAVG PRESSURE GPRESSURE VOLUME PRESSAVG GPRESSAVG
ENERGY: 0 0.1557 2.2971 23.6150 0.0000 -10979.6020 1511.2020 0.0000 0.0000 1783.6402 -7658.6920 299.8392 -9442.3322 -7658.6920 299.8392 482.1832 572.8206 30041.1732 482.1832 572.8206
ENERGY: 300000 0.2464 6.3351 22.3301 0.0000 -10724.6461 1376.6684 0.0000 0.0000 1804.4765 -7514.5897 303.3419 -9319.0662 -7605.6060 299.0177 -583.3516 -512.8484 30941.1679 -397.9091 -317.0075
ENERGY: 600000 0.7104 1.9487 21.9741 0.0000 -10972.2025 1546.1091 0.0000 0.0000 1760.8140 -7640.6462 296.0020 -9401.4602 -7607.4203 299.7671 328.5385 393.8100 31009.9272 -197.9996 -129.6333
ENERGY: 900000 0.7153 2.0246 24.7926 0.0000 -10814.7585 1457.1080 0.0000 0.0000 1749.7619 -7580.3561 294.1441 -9330.1180 -7588.9977 299.9768 360.1530 370.9590 30239.2656 -223.5753 -163.3166
ENERGY: 1200000 1.0935 2.2097 23.2965 0.0000 -11001.6206 1518.1837 0.0000 0.0000 1797.3706 -7659.4666 302.1473 -9456.8372 -7606.1239 299.7121 18.6569 93.6064 31090.3915 -116.9720 -57.8309
ENERGY: 1500000 0.5407 0.7740 22.9809 0.0000 -10975.0766 1562.3124 0.0000 0.0000 1823.8127 -7564.6558 306.5924 -9388.4685 -7604.2283 300.5932 745.9321 815.5861 30656.4321 -51.0725 6.5217
TCL: Running FEP window  17: Lambda1 0.19999999999999968 Lambda2 0.1499999999999997 [dLambda -0.04999999999999999]
TCL: Setting parameter firsttimestep to 0
TCL: Setting parameter alchLambda to 0.19999999999999968
Info: NONBONDED TABLE R-SQUARED SPACING: 0.0625
Info: NONBONDED TABLE SIZE: 705 POINTS
TCL: Setting parameter alchLambda2 to 0.1499999999999997
Info: NONBONDED TABLE R-SQUARED SPACING: 0.0625
Info: NONBONDED TABLE SIZE: 705 POINTS
TCL: Running for 1500000 steps
ETITLE: TS BOND ANGLE DIHED IMPRP ELECT VDW BOUNDARY MISC KINETIC TOTAL TEMP POTENTIAL TOTALAVG TEMPAVG PRESSURE GPRESSURE VOLUME PRESSAVG GPRESSAVG
ENERGY: 0 0.5407 0.7740 22.9809 0.0000 -10975.0764 1562.4042 0.0000 0.0000 1822.9338 -7565.4428 306.4446 -9388.3766 -7565.4428 306.4446 736.9571 813.6664 30656.4321 736.9571 813.6664
ENERGY: 300000 0.3682 0.4171 23.3815 0.0000 -11020.8884 1536.1661 0.0000 0.0000 1777.8132 -7682.7423 298.8596 -9460.5555 -7632.3305 298.8002 291.4938 338.1490 30628.2472 185.1071 254.6119
ENERGY: 600000 2.1825 0.5657 23.1048 0.0000 -10923.5395 1450.7642 0.0000 0.0000 1808.6670 -7638.2554 304.0463 -9446.9224 -7618.6661 299.5012 185.8709 172.6919 30114.0856 245.2157 314.8558
ENERGY: 900000 0.7771 3.1255 22.7449 0.0000 -10840.2374 1485.0095 0.0000 0.0000 1752.5903 -7575.9901 294.6195 -9328.5805 -7611.2950 299.5614 156.2071 271.5589 30895.2862 67.8465 155.0301
ENERGY: 1200000 0.0660 2.8571 22.9345 0.0000 -10901.6011 1507.4502 0.0000 0.0000 1789.9557 -7578.3376 300.9009 -9368.2933 -7603.8725 300.1721 7.5114 60.5357 31258.1840 42.3019 118.0687
ENERGY: 1500000 0.2324 3.9030 20.4218 0.0000 -10961.8607 1541.7912 0.0000 0.0000 1740.1853 -7655.3270 292.5342 -9395.5123 -7610.1883 299.6603 556.3635 625.7470 30534.0878 89.8983 156.4282
TCL: Running FEP window  18: Lambda1 0.1499999999999997 Lambda2 0.09999999999999969 [dLambda -0.05 ]
TCL: Setting parameter firsttimestep to 0
TCL: Setting parameter alchLambda to 0.1499999999999997
Info: NONBONDED TABLE R-SQUARED SPACING: 0.0625
Info: NONBONDED TABLE SIZE: 705 POINTS
TCL: Setting parameter alchLambda2 to 0.09999999999999969
Info: NONBONDED TABLE R-SQUARED SPACING: 0.0625
Info: NONBONDED TABLE SIZE: 705 POINTS
TCL: Running for 1500000 steps
ETITLE: TS BOND ANGLE DIHED IMPRP ELECT VDW BOUNDARY MISC KINETIC TOTAL TEMP POTENTIAL TOTALAVG TEMPAVG PRESSURE GPRESSURE VOLUME PRESSAVG GPRESSAVG
ENERGY: 0 0.2324 3.9030 20.4218 0.0000 -10961.8595 1541.8981 0.0000 0.0000 1739.2890 -7656.1153 292.3835 -9395.4042 -7656.1153 292.3835 534.0647 624.4126 30534.0878 534.0647 624.4126
ENERGY: 300000 0.4155 1.3471 24.0925 0.0000 -10962.0029 1488.7626 0.0000 0.0000 1852.5222 -7594.8631 311.4186 -9447.3853 -7670.8561 299.3763 108.5917 160.9699 30603.2592 -96.1761 -25.3762
ENERGY: 600000 0.5838 1.3269 24.5506 0.0000 -10829.5642 1387.9761 0.0000 0.0000 1794.5313 -7620.5954 301.6700 -9415.1267 -7632.6080 300.9625 -769.1120 -689.5552 30950.9252 -275.4382 -198.8548
ENERGY: 900000 0.7253 1.3837 21.7530 0.0000 -10699.3859 1336.8115 0.0000 0.0000 1768.4779 -7570.2345 297.2903 -9338.7124 -7619.9122 301.4946 -1007.3284 -930.9346 31009.5455 -373.6728 -296.3202
ENERGY: 1200000 1.4930 3.6791 24.6197 0.0000 -10911.6371 1488.2106 0.0000 0.0000 1791.1056 -7602.5290 301.0942 -9393.6346 -7620.5739 300.7431 3.1101 143.3262 30855.8878 -160.2268 -84.2894
ENERGY: 1500000 0.1984 1.4357 22.3200 0.0000 -10989.3875 1555.3938 0.0000 0.0000 1793.2622 -7616.7774 301.4567 -9410.0396 -7608.4956 300.5106 643.3788 690.9741 30687.6942 -129.4016 -57.2594
TCL: Running FEP window  19: Lambda1 0.09999999999999969 Lambda2 0.049999999999999684 [dLambda -0.05 ]
TCL: Setting parameter firsttimestep to 0
TCL: Setting parameter alchLambda to 0.09999999999999969
Info: NONBONDED TABLE R-SQUARED SPACING: 0.0625
Info: NONBONDED TABLE SIZE: 705 POINTS
TCL: Setting parameter alchLambda2 to 0.049999999999999684
Info: NONBONDED TABLE R-SQUARED SPACING: 0.0625
Info: NONBONDED TABLE SIZE: 705 POINTS
TCL: Running for 1500000 steps
ETITLE: TS BOND ANGLE DIHED IMPRP ELECT VDW BOUNDARY MISC KINETIC TOTAL TEMP POTENTIAL TOTALAVG TEMPAVG PRESSURE GPRESSURE VOLUME PRESSAVG GPRESSAVG
ENERGY: 0 0.1984 1.4357 22.3200 0.0000 -10989.3877 1555.4440 0.0000 0.0000 1792.3356 -7617.6540 301.3009 -9409.9895 -7617.6540 301.3009 617.3232 692.9617 30687.6942 617.3232 692.9617
ENERGY: 300000 0.3809 1.8581 23.7552 0.0000 -10852.5389 1385.7595 0.0000 0.0000 1815.7697 -7625.0156 305.2403 -9440.7852 -7604.6721 303.5503 -721.7589 -672.1059 30647.2946 -177.5981 -97.5807
ENERGY: 600000 0.6115 2.1815 22.8559 0.0000 -10985.8512 1528.0272 0.0000 0.0000 1782.2495 -7649.9255 299.6054 -9432.1750 -7598.9654 302.8307 654.2781 740.8440 30232.7609 -159.2784 -85.0367
ENERGY: 900000 1.0256 1.9269 23.1641 0.0000 -10922.1150 1542.8030 0.0000 0.0000 1740.8686 -7612.3267 292.6490 -9353.1953 -7596.0060 301.8682 902.7709 961.7937 30347.7932 -21.5473 44.2873
ENERGY: 1200000 1.1646 6.5797 22.8687 0.0000 -10821.4683 1426.7539 0.0000 0.0000 1784.8372 -7579.2642 300.0404 -9364.1014 -7594.1020 301.6895 -321.0289 -211.0043 30798.4993 -48.9133 23.5874
ENERGY: 1500000 1.1027 3.2542 21.3676 0.0000 -10803.4770 1440.1976 0.0000 0.0000 1830.5158 -7507.0392 307.7192 -9337.5549 -7586.1251 302.4750 -143.8900 -68.2665 31159.6248 -119.7873 -48.1045
TCL: Running FEP window  20: Lambda1 0.049999999999999684 Lambda2 0.0    [dLambda -0.049999999999999684]
TCL: Setting parameter firsttimestep to 0
TCL: Setting parameter alchLambda to 0.049999999999999684
Info: NONBONDED TABLE R-SQUARED SPACING: 0.0625
Info: NONBONDED TABLE SIZE: 705 POINTS
TCL: Setting parameter alchLambda2 to 0.0
Info: NONBONDED TABLE R-SQUARED SPACING: 0.0625
Info: NONBONDED TABLE SIZE: 705 POINTS
TCL: Running for 1500000 steps
ETITLE: TS BOND ANGLE DIHED IMPRP ELECT VDW BOUNDARY MISC KINETIC TOTAL TEMP POTENTIAL TOTALAVG TEMPAVG PRESSURE GPRESSURE VOLUME PRESSAVG GPRESSAVG
ENERGY: 0 1.1028 3.2542 21.3676 0.0000 -10803.4769 1439.9842 0.0000 0.0000 1829.6530 -7508.1151 307.5742 -9337.7681 -7508.1151 307.5742 -142.1316 -69.2842 31159.6248 -142.1316 -69.2842
ENERGY: 300000 0.5491 3.8850 22.4122 0.0000 -10900.2414 1480.1175 0.0000 0.0000 1842.2258 -7551.0519 309.6877 -9393.2776 -7557.8138 304.8784 103.4628 146.3359 30694.5521 -240.3152 -182.1204
ENERGY: 600000 0.4744 2.1683 22.6958 0.0000 -10946.8100 1481.5308 0.0000 0.0000 1777.2462 -7662.6944 298.7643 -9439.9406 -7602.0261 302.0521 120.0741 185.8818 30523.1168 -249.0297 -191.7948
ENERGY: 900000 0.0186 1.4585 23.2938 0.0000 -10849.7790 1437.7358 0.0000 0.0000 1815.0739 -7572.1984 305.1233 -9387.2723 -7619.3897 301.5409 -287.6274 -220.8765 30883.4916 -131.7217 -65.2983
ENERGY: 1200000 0.2632 2.3527 21.6151 0.0000 -10813.3963 1431.6269 0.0000 0.0000 1757.6164 -7599.9220 295.4644 -9357.5384 -7618.3274 300.1501 -238.5995 -192.0582 30985.7870 -126.6698 -53.6877
ENERGY: 1500000 0.3792 1.2286 24.7244 0.0000 -10956.1968 1487.5559 0.0000 0.0000 1743.6553 -7698.6534 293.1175 -9442.3087 -7618.6060 299.2418 5.6394 91.2784 30596.3522 -154.5438 -79.6847
TCL: Exiting due to exit command.
