Info: SIMULATION PARAMETERS:
Info: TIMESTEP               2
Info: NUMBER OF STEPS        0
Info: STEPS PER CYCLE        10
Info: PERIODIC CELL BASIS 1  31.1662 0 0
Info: PERIODIC CELL BASIS 2  0 29.7569 0
Info: PERIODIC CELL BASIS 3  0 0 33.134
Info: PERIODIC CELL CENTER   0 0 0
Info: WRAPPING WATERS AROUND PERIODIC BOUNDARIES ON OUTPUT.
Info: WRAPPING ALL CLUSTERS AROUND PERIODIC BOUNDARIES ON OUTPUT.
Info: FIRST LDB TIMESTEP     50
Info: LAST LDB TIMESTEP     -1
Info: HOM BACKGROUND SCALING 1
Info: PME BACKGROUND SCALING 1
Info: MIN ATOMS PER PATCH    40
Info: EMPTY PATCH LOAD       40 ATOMS
Info: VELOCITY FILE          mobley_4483973_equil.vel
Info: CENTER OF MASS MOVING INITIALLY? NO
Info: DIELECTRIC             1
Info: EXCLUDE                SCALED ONE-FOUR
Info: 1-4 ELECTROSTATICS SCALED BY 0.833333
Info: MODIFIED 1-4 VDW PARAMETERS WILL BE USED
Info: DCD FILENAME           mobley_4483973_prod.dcd
Info: DCD FREQUENCY          100000
Info: DCD FIRST STEP         100000
Info: DCD FILE WILL CONTAIN UNIT CELL DATA
Info: XST FILENAME           mobley_4483973_prod.xst
Info: XST FREQUENCY          100000
Info: NO VELOCITY DCD OUTPUT
Info: NO FORCE DCD OUTPUT
Info: OUTPUT FILENAME        mobley_4483973_prod
Info: BINARY OUTPUT FILES WILL BE USED
Info: RESTART FILENAME       mobley_4483973_prod.restart
Info: RESTART FREQUENCY      100000
Info: BINARY RESTART FILES WILL BE USED
Info: CUTOFF                 9
Info: PAIRLIST DISTANCE      11
Info: PAIRLIST SHRINK RATE   0.01
Info: PAIRLIST GROW RATE     0.01
Info: PAIRLIST TRIGGER       0.3
Info: PAIRLISTS PER CYCLE    2
Info: PAIRLISTS ENABLED
Info: MARGIN                 2
Info: HYDROGEN GROUP CUTOFF  2.5
Info: PATCH DIMENSION        15.5
Info: ENERGY OUTPUT STEPS    100000
Info: ENERGY EVALUATION STEPS    100000
Info: OUTPUT ENERGY PRECISION 4
Info: CROSSTERM ENERGY INCLUDED IN DIHEDRAL
Info: TIMING OUTPUT STEPS    1000000
Info: PRESSURE OUTPUT STEPS  100000
Info: ALCHEMICAL FEP ON
Info: FEP CURRENT LAMBDA VALUE     0
Info: FEP COMPARISON LAMBDA VALUE  0.05
Info: FEP INTRA-ALCHEMICAL NON-BONDED INTERACTIONS WILL BE RETAINED
Info: FEP INTRA-ALCHEMICAL BONDED INTERACTIONS WILL BE RETAINED
Info: FEP VDW SHIFTING COEFFICIENT 5
Info: FEP ELEC. ACTIVE FOR ANNIHILATED PARTICLES BETWEEN LAMBDA = 0 AND LAMBDA = 0.5
Info: FEP ELEC. ACTIVE FOR EXNIHILATED PARTICLES BETWEEN LAMBDA = 0.5 AND LAMBDA = 1
Info: FEP VDW ACTIVE FOR ANNIHILATED PARTICLES BETWEEN LAMBDA = 0 AND LAMBDA = 1
Info: FEP VDW ACTIVE FOR EXNIHILATED PARTICLES BETWEEN LAMBDA = 0 AND LAMBDA = 1
Info: FEP BOND ACTIVE FOR ANNIHILATED PARTICLES BETWEEN LAMBDA = 1 AND LAMBDA = 1
Info: FEP BOND ACTIVE FOR EXNIHILATED PARTICLES BETWEEN LAMBDA = 0 AND LAMBDA = 0
Info: LANGEVIN DYNAMICS ACTIVE
Info: LANGEVIN TEMPERATURE   300
Info: LANGEVIN USING BBK INTEGRATOR
Info: LANGEVIN DAMPING COEFFICIENT IS 1 INVERSE PS
Info: LANGEVIN DYNAMICS APPLIED TO HYDROGENS
Info: LANGEVIN PISTON PRESSURE CONTROL ACTIVE
Info:        TARGET PRESSURE IS 1.01325 BAR
Info:     OSCILLATION PERIOD IS 50 FS
Info:             DECAY TIME IS 25 FS
Info:     PISTON TEMPERATURE IS 300 K
Info:       PRESSURE CONTROL IS GROUP-BASED
Info:    INITIAL STRAIN RATE IS 6.61946e-05 6.61946e-05 6.61946e-05
Info:       CELL FLUCTUATION IS ISOTROPIC
Info: PARTICLE MESH EWALD (PME) ACTIVE
Info: PME TOLERANCE               1e-06
Info: PME EWALD COEFFICIENT       0.348832
Info: PME INTERPOLATION ORDER     4
Info: PME GRID DIMENSIONS         32 32 36
Info: PME MAXIMUM GRID SPACING    1
Info: PME CALCULATION WILL BE PERFORMED ON GPU
Info: FULL ELECTROSTATIC EVALUATION FREQUENCY      2
Info: USING VERLET I (r-RESPA) MTS SCHEME.
Info: C1 SPLITTING OF LONG RANGE ELECTROSTATICS
Info: PLACING ATOMS IN PATCHES BY HYDROGEN GROUPS
Info: RIGID BONDS TO HYDROGEN : ALL
Info:         ERROR TOLERANCE : 1e-08
Info:          MAX ITERATIONS : 100
Info: RIGID WATER USING SETTLE ALGORITHM
Info: RANDOM NUMBER SEED     1742239890
Info: USE HYDROGEN BONDS?    NO
Info: Using AMBER format force field!
Info: AMBER PARM FILE        mobley_4483973.prmtop
Info: COORDINATE PDB         mobley_4483973.pdb
Info: Exclusions will be read from PARM file!
Info: SCNB (VDW SCALING)     2
Info: USING ARITHMETIC MEAN TO COMBINE L-J SIGMA PARAMETERS
Info: BINARY COORDINATES     mobley_4483973_equil.coor
Info: SUMMARY OF PARAMETERS:
Info: 5 BONDS
Info: 3 ANGLES
Info:   3 HARMONIC
Info:   0 COSINE-BASED
Info: 2 DIHEDRAL
Info: 0 IMPROPER
Info: 0 CROSSTERM
Info: 0 VDW
Info: 15 VDW_PAIRS
Info: 0 NBTHOLE_PAIRS
Info: To read alchdata from file: mobley_4483973.pdb
Info: To read alchflag data from column: 5
Info: STRUCTURE SUMMARY:
Info: 2934 ATOMS
Info: 2934 BONDS
Info: 18 ANGLES
Info: 30 DIHEDRALS
Info: 0 IMPROPERS
Info: 0 CROSSTERMS
Info: 2973 EXCLUSIONS
Info: 2927 RIGID BONDS
Info: ALCH: 0 ATOMS TO DISAPPEAR IN FINAL STATE
Info: ALCH: 12 ATOMS TO APPEAR IN FINAL STATE
Info: 5875 DEGREES OF FREEDOM
Info: 981 HYDROGEN GROUPS
Info: 3 ATOMS IN LARGEST HYDROGEN GROUP
Info: 981 MIGRATION GROUPS
Info: 3 ATOMS IN LARGEST MIGRATION GROUP
Info: TOTAL MASS = 17643.7 amu
Info: TOTAL CHARGE = 0 e
Info: MASS DENSITY = 0.95346 g/cm^3
Info: ATOM DENSITY = 0.0954803 atoms/A^3
Info: ADDED 0 IMPLICIT EXCLUSIONS
Info: NONBONDED TABLE R-SQUARED SPACING: 0.0625
Info: NONBONDED TABLE SIZE: 705 POINTS
Info: REMOVING COM VELOCITY 0.105242 -0.200619 -0.0257722
Info: Use 3D box decompostion in PME FFT.
Info: Updated CUDA force table with 4096 elements.
Info: Updated CUDA LJ table with 5 x 5 elements.
Info: Found 14 unique exclusion lists needing 24 bytes
TCL: Running for 1500000 steps
ETITLE: TS BOND ANGLE DIHED IMPRP ELECT VDW BOUNDARY MISC KINETIC TOTAL TEMP POTENTIAL TOTALAVG TEMPAVG PRESSURE GPRESSURE VOLUME PRESSAVG GPRESSAVG
ENERGY: 0 1.6912 3.9413 3.4243 0.0000 -10557.7119 1384.2938 0.0000 0.0000 1690.0068 -7474.3544 289.5149 -9164.3612 -7474.3544 289.5149 -554.4213 -477.9846 30728.8448 -554.4213 -477.9846
ENERGY: 300000 2.0598 1.7450 3.5489 0.0000 -10514.0237 1349.7322 0.0000 0.0000 1747.9709 -7408.9670 299.4447 -9156.9379 -7451.2456 297.7271 -669.1266 -578.5166 30516.2345 -388.2940 -316.2790
ENERGY: 600000 0.5674 1.5538 5.4558 0.0000 -10611.0533 1447.4265 0.0000 0.0000 1767.7116 -7388.3380 302.8265 -9156.0496 -7450.5096 297.5293 -107.2569 -17.0447 30635.3016 -316.8853 -231.5865
ENERGY: 900000 1.6606 2.2295 5.4932 0.0000 -10488.4109 1369.5931 0.0000 0.0000 1689.9128 -7419.5217 289.4988 -9109.4345 -7435.5250 297.4523 -148.1999 -130.1965 29950.5751 -230.4673 -163.9988
ENERGY: 1200000 1.8478 2.0987 0.5710 0.0000 -10515.9666 1345.1288 0.0000 0.0000 1769.4451 -7396.8751 303.1235 -9166.3202 -7436.9448 298.5006 -749.3201 -668.3189 30653.1055 -224.3117 -157.0718
ENERGY: 1500000 0.7665 3.9300 2.9490 0.0000 -10660.1997 1468.9218 0.0000 0.0000 1751.9906 -7431.6417 300.1334 -9183.6323 -7440.5700 298.5526 54.8107 76.3431 30443.7185 -227.0111 -162.2843
TCL: Running FEP window   2: Lambda1 0.05   Lambda2 0.1    [dLambda 0.05  ]
TCL: Setting parameter firsttimestep to 0
TCL: Setting parameter alchLambda to 0.05
Info: NONBONDED TABLE R-SQUARED SPACING: 0.0625
Info: NONBONDED TABLE SIZE: 705 POINTS
TCL: Setting parameter alchLambda2 to 0.1
Info: NONBONDED TABLE R-SQUARED SPACING: 0.0625
Info: NONBONDED TABLE SIZE: 705 POINTS
TCL: Running for 1500000 steps
ETITLE: TS BOND ANGLE DIHED IMPRP ELECT VDW BOUNDARY MISC KINETIC TOTAL TEMP POTENTIAL TOTALAVG TEMPAVG PRESSURE GPRESSURE VOLUME PRESSAVG GPRESSAVG
ENERGY: 0 0.7665 3.9300 2.9490 0.0000 -10660.2003 1469.9309 0.0000 0.0000 1751.1178 -7431.5060 299.9839 -9182.6239 -7431.5060 299.9839 -3.5283 83.1798 30443.7185 -3.5283 83.1798
ENERGY: 300000 2.4896 2.1518 2.8772 0.0000 -10619.0133 1467.0406 0.0000 0.0000 1660.8759 -7483.5782 284.5245 -9144.4542 -7477.1128 294.1913 320.6529 344.9416 30109.8110 56.2720 106.9886
ENERGY: 600000 3.4221 1.5432 0.9312 0.0000 -10545.8919 1432.2278 0.0000 0.0000 1760.2993 -7347.4683 301.5567 -9107.7676 -7458.2064 296.9970 301.3645 333.0932 30157.3710 160.1431 210.6724
ENERGY: 900000 1.3704 4.1136 3.0009 0.0000 -10746.8811 1501.8528 0.0000 0.0000 1757.6096 -7478.9339 301.0960 -9236.5435 -7466.0290 297.7203 484.3488 478.7396 29870.9545 149.0704 194.2099
ENERGY: 1200000 1.3577 1.9014 1.9803 0.0000 -10565.0720 1376.1137 0.0000 0.0000 1778.3199 -7405.3990 304.6438 -9183.7189 -7463.4991 297.8627 -475.0197 -438.0778 30108.1200 163.7891 213.8891
ENERGY: 1500000 1.8744 3.3377 1.9369 0.0000 -10676.6577 1446.2502 0.0000 0.0000 1742.6930 -7480.5654 298.5406 -9223.2584 -7456.1670 298.7775 -250.9554 -309.3809 30714.8794 97.3366 135.9149
TCL: Running FEP window   3: Lambda1 0.1    Lambda2 0.15000000000000002 [dLambda 0.05000000000000002]
TCL: Setting parameter firsttimestep to 0
TCL: Setting parameter alchLambda to 0.1
Info: NONBONDED TABLE R-SQUARED SPACING: 0.0625
Info: NONBONDED TABLE SIZE: 705 POINTS
TCL: Setting parameter alchLambda2 to 0.15000000000000002
Info: NONBONDED TABLE R-SQUARED SPACING: 0.0625
Info: NONBONDED TABLE SIZE: 705 POINTS
TCL: Running for 1500000 steps
ETITLE: TS BOND ANGLE DIHED IMPRP ELECT VDW BOUNDARY MISC KINETIC TOTAL TEMP POTENTIAL TOTALAVG TEMPAVG PRESSURE GPRESSURE VOLUME PRESSAVG GPRESSAVG
ENERGY: 0 1.8745 3.3377 1.9369 0.0000 -10676.6591 1449.6015 0.0000 0.0000 1741.8510 -7478.0574 298.3964 -9219.9084 -7478.0574 298.3964 -384.5830 -300.5080 30714.8794 -384.5830 -300.5080
ENERGY: 300000 3.4604 1.5433 4.3975 0.0000 -10776.5084 1530.7722 0.0000 0.0000 1769.6262 -7466.7088 303.1545 -9236.3350 -7479.7210 298.3877 595.4331 625.6351 30289.1932 224.4164 290.3141
ENERGY: 600000 2.6435 1.0634 4.0712 0.0000 -10720.0717 1464.9372 0.0000 0.0000 1743.6511 -7503.7053 298.7047 -9247.3563 -7475.4989 297.6512 -151.2157 -75.6358 30510.6514 57.2661 123.3817
ENERGY: 900000 2.4355 2.5467 2.1112 0.0000 -10733.6584 1449.9357 0.0000 0.0000 1816.0102 -7460.6190 311.1006 -9276.6292 -7473.7837 298.9728 -99.7765 -6.8256 29853.5183 66.1055 130.9223
ENERGY: 1200000 2.1815 1.7003 2.3259 0.0000 -10552.1456 1438.7232 0.0000 0.0000 1811.0025 -7296.2122 310.2427 -9107.2147 -7449.3998 300.1128 198.5102 196.3638 30663.5637 95.8904 163.3940
ENERGY: 1500000 2.3142 5.6908 2.8910 0.0000 -10644.3171 1464.6684 0.0000 0.0000 1770.6965 -7398.0561 303.3379 -9168.7527 -7441.1729 300.4622 308.1970 439.8753 30041.8902 83.8049 151.5748
TCL: Running FEP window   4: Lambda1 0.15000000000000002 Lambda2 0.2    [dLambda 0.04999999999999999]
TCL: Setting parameter firsttimestep to 0
TCL: Setting parameter alchLambda to 0.15000000000000002
Info: NONBONDED TABLE R-SQUARED SPACING: 0.0625
Info: NONBONDED TABLE SIZE: 705 POINTS
TCL: Setting parameter alchLambda2 to 0.2
Info: NONBONDED TABLE R-SQUARED SPACING: 0.0625
Info: NONBONDED TABLE SIZE: 705 POINTS
TCL: Running for 1500000 steps
ETITLE: TS BOND ANGLE DIHED IMPRP ELECT VDW BOUNDARY MISC KINETIC TOTAL TEMP POTENTIAL TOTALAVG TEMPAVG PRESSURE GPRESSURE VOLUME PRESSAVG GPRESSAVG
ENERGY: 0 2.3142 5.6908 2.8910 0.0000 -10644.3158 1465.9242 0.0000 0.0000 1769.8370 -7397.6586 303.1906 -9167.4956 -7397.6586 303.1906 355.2229 446.3024 30041.8902 355.2229 446.3024
ENERGY: 300000 1.6066 1.2379 1.4424 0.0000 -10759.4646 1555.6106 0.0000 0.0000 1766.2886 -7433.2785 302.5828 -9199.5671 -7449.6184 302.0902 1008.8191 1108.4014 29740.4240 518.0073 586.9221
ENERGY: 600000 2.5297 4.3211 1.7200 0.0000 -10563.1064 1376.8706 0.0000 0.0000 1755.8424 -7421.8226 300.7932 -9177.6651 -7451.3491 301.2440 -434.8602 -360.6378 30333.6462 66.7200 144.3359
ENERGY: 900000 1.6414 2.1384 2.8259 0.0000 -10492.3843 1380.9263 0.0000 0.0000 1781.9100 -7322.9425 305.2589 -9104.8525 -7430.1081 300.3547 -414.3210 -316.8850 30373.4548 -34.9881 48.7412
ENERGY: 1200000 2.3327 2.7803 3.7689 0.0000 -10650.5371 1445.8229 0.0000 0.0000 1765.9382 -7429.8940 302.5227 -9195.8322 -7431.2860 300.7294 89.6196 174.8657 30114.9103 -15.0687 65.2265
ENERGY: 1500000 1.7980 3.9307 1.5825 0.0000 -10715.7063 1503.5834 0.0000 0.0000 1722.3412 -7482.4705 295.0541 -9204.8117 -7433.4294 299.8407 635.7493 697.3493 29725.4801 50.3267 130.7954
TCL: Running FEP window   5: Lambda1 0.2    Lambda2 0.25   [dLambda 0.04999999999999999]
TCL: Setting parameter firsttimestep to 0
TCL: Setting parameter alchLambda to 0.2
Info: NONBONDED TABLE R-SQUARED SPACING: 0.0625
Info: NONBONDED TABLE SIZE: 705 POINTS
TCL: Setting parameter alchLambda2 to 0.25
Info: NONBONDED TABLE R-SQUARED SPACING: 0.0625
Info: NONBONDED TABLE SIZE: 705 POINTS
TCL: Running for 1500000 steps
ETITLE: TS BOND ANGLE DIHED IMPRP ELECT VDW BOUNDARY MISC KINETIC TOTAL TEMP POTENTIAL TOTALAVG TEMPAVG PRESSURE GPRESSURE VOLUME PRESSAVG GPRESSAVG
ENERGY: 0 1.7980 3.9307 1.5825 0.0000 -10715.7063 1505.5127 0.0000 0.0000 1721.4451 -7481.4373 294.9006 -9202.8824 -7481.4373 294.9006 618.9023 711.4104 29725.4801 618.9023 711.4104
ENERGY: 300000 2.3344 1.7072 3.2972 0.0000 -10736.3646 1485.2031 0.0000 0.0000 1745.9407 -7497.8821 299.0970 -9243.8227 -7467.8688 299.3912 421.4910 553.1069 29562.6693 72.6833 148.2526
ENERGY: 600000 2.0006 4.5852 1.2936 0.0000 -10586.4388 1397.4096 0.0000 0.0000 1738.9151 -7442.2347 297.8934 -9181.1498 -7458.6007 298.5299 -378.0571 -307.2345 30552.7181 112.2393 197.6894
ENERGY: 900000 2.4912 3.6457 3.7163 0.0000 -10648.7977 1484.2802 0.0000 0.0000 1727.3234 -7427.3408 295.9076 -9154.6642 -7447.7454 298.2767 588.4708 619.3649 30265.1549 157.6469 237.3869
ENERGY: 1200000 2.7849 1.1850 2.0967 0.0000 -10613.1151 1395.0164 0.0000 0.0000 1750.4683 -7461.5639 299.8726 -9212.0321 -7442.5289 299.3588 -556.6701 -497.7320 30241.2973 61.1448 132.6013
ENERGY: 1500000 2.2500 2.3743 3.2045 0.0000 -10705.0953 1521.5690 0.0000 0.0000 1800.3361 -7375.3615 308.4154 -9175.6976 -7433.8343 300.3276 897.2659 900.5793 30041.0194 76.8030 143.0848
TCL: Running FEP window   6: Lambda1 0.25   Lambda2 0.3    [dLambda 0.04999999999999999]
TCL: Setting parameter firsttimestep to 0
TCL: Setting parameter alchLambda to 0.25
Info: NONBONDED TABLE R-SQUARED SPACING: 0.0625
Info: NONBONDED TABLE SIZE: 705 POINTS
TCL: Setting parameter alchLambda2 to 0.3
Info: NONBONDED TABLE R-SQUARED SPACING: 0.0625
Info: NONBONDED TABLE SIZE: 705 POINTS
TCL: Running for 1500000 steps
ETITLE: TS BOND ANGLE DIHED IMPRP ELECT VDW BOUNDARY MISC KINETIC TOTAL TEMP POTENTIAL TOTALAVG TEMPAVG PRESSURE GPRESSURE VOLUME PRESSAVG GPRESSAVG
ENERGY: 0 2.2500 2.3743 3.2045 0.0000 -10705.0963 1521.7069 0.0000 0.0000 1799.4672 -7376.0934 308.2666 -9175.5606 -7376.0934 308.2666 828.1287 904.6562 30041.0194 828.1287 904.6562
ENERGY: 300000 3.3097 2.6277 1.8776 0.0000 -10619.7029 1416.8143 0.0000 0.0000 1764.9213 -7430.1524 302.3485 -9195.0737 -7439.6282 302.7943 -169.1158 -128.8650 30126.7886 -50.5087 2.0186
ENERGY: 600000 1.7649 2.6443 5.5610 0.0000 -10797.0510 1545.2143 0.0000 0.0000 1778.7879 -7463.0786 304.7240 -9241.8665 -7439.8646 303.3966 961.7309 1056.5317 29559.9329 184.0976 239.1955
ENERGY: 900000 1.1245 3.5052 2.7903 0.0000 -10726.7890 1457.5347 0.0000 0.0000 1759.7804 -7502.0539 301.4678 -9261.8343 -7441.3851 302.4617 145.2850 185.8412 30114.5661 72.0573 125.0955
ENERGY: 1200000 1.5458 3.6135 2.7072 0.0000 -10563.5387 1359.7989 0.0000 0.0000 1716.4214 -7479.4518 294.0400 -9195.8732 -7443.8384 302.1806 -507.9347 -425.5045 29809.1143 102.7599 155.8050
ENERGY: 1500000 1.8055 3.9462 2.5747 0.0000 -10606.3730 1375.1205 0.0000 0.0000 1813.4238 -7409.5022 310.6575 -9222.9260 -7446.4525 301.9283 -571.1594 -496.7427 30128.2751 125.7637 183.5081
TCL: Running FEP window   7: Lambda1 0.3    Lambda2 0.35   [dLambda 0.04999999999999999]
TCL: Setting parameter firsttimestep to 0
TCL: Setting parameter alchLambda to 0.3
Info: NONBONDED TABLE R-SQUARED SPACING: 0.0625
Info: NONBONDED TABLE SIZE: 705 POINTS
TCL: Setting parameter alchLambda2 to 0.35
Info: NONBONDED TABLE R-SQUARED SPACING: 0.0625
Info: NONBONDED TABLE SIZE: 705 POINTS
TCL: Running for 1500000 steps
ETITLE: TS BOND ANGLE DIHED IMPRP ELECT VDW BOUNDARY MISC KINETIC TOTAL TEMP POTENTIAL TOTALAVG TEMPAVG PRESSURE GPRESSURE VOLUME PRESSAVG GPRESSAVG
ENERGY: 0 1.8055 3.9462 2.5747 0.0000 -10606.3730 1376.0873 0.0000 0.0000 1812.4988 -7409.4603 310.4990 -9221.9592 -7409.4603 310.4990 -570.9996 -487.8522 30128.2751 -570.9996 -487.8522
ENERGY: 300000 3.2035 1.6631 3.3795 0.0000 -10767.9298 1561.8276 0.0000 0.0000 1740.4027 -7457.4534 298.1482 -9197.8561 -7432.5686 302.3614 1114.5035 1185.5774 30091.1198 92.7385 158.8919
ENERGY: 600000 2.6792 5.5064 1.9295 0.0000 -10736.9854 1459.5845 0.0000 0.0000 1769.3611 -7497.9247 303.1091 -9267.2858 -7438.6969 303.2626 144.5811 208.7614 29955.9045 10.0007 74.9035
ENERGY: 900000 2.1444 1.8268 1.8665 0.0000 -10348.9294 1270.8614 0.0000 0.0000 1756.2349 -7315.9954 300.8605 -9072.2303 -7441.0807 302.3283 -1291.6381 -1196.5708 30915.0889 -188.0550 -122.6739
ENERGY: 1200000 1.5507 2.7943 4.1639 0.0000 -10593.9893 1358.8623 0.0000 0.0000 1803.4385 -7423.1796 308.9469 -9226.6181 -7436.7015 303.1255 -518.1955 -520.0152 30043.9565 -288.5209 -229.7861
ENERGY: 1500000 1.2030 2.5496 3.8686 0.0000 -10710.9004 1452.1054 0.0000 0.0000 1784.6387 -7466.5351 305.7263 -9251.1738 -7433.7445 302.2738 106.7800 129.4455 29989.9683 -266.1848 -208.4306
TCL: Running FEP window   8: Lambda1 0.35   Lambda2 0.39999999999999997 [dLambda 0.04999999999999999]
TCL: Setting parameter firsttimestep to 0
TCL: Setting parameter alchLambda to 0.35
Info: NONBONDED TABLE R-SQUARED SPACING: 0.0625
Info: NONBONDED TABLE SIZE: 705 POINTS
TCL: Setting parameter alchLambda2 to 0.39999999999999997
Info: NONBONDED TABLE R-SQUARED SPACING: 0.0625
Info: NONBONDED TABLE SIZE: 705 POINTS
TCL: Running for 1500000 steps
ETITLE: TS BOND ANGLE DIHED IMPRP ELECT VDW BOUNDARY MISC KINETIC TOTAL TEMP POTENTIAL TOTALAVG TEMPAVG PRESSURE GPRESSURE VOLUME PRESSAVG GPRESSAVG
ENERGY: 0 1.2030 2.5496 3.8686 0.0000 -10710.9003 1452.8975 0.0000 0.0000 1783.7632 -7466.6184 305.5763 -9250.3816 -7466.6184 305.5763 47.8330 140.0525 29989.9683 47.8330 140.0525
ENERGY: 300000 2.7997 3.3507 2.2072 0.0000 -10631.4496 1410.6311 0.0000 0.0000 1747.5495 -7464.9114 299.3726 -9212.4609 -7453.4331 301.3139 -317.4647 -283.8096 30447.3265 -16.2514 25.5367
ENERGY: 600000 1.5708 3.8735 6.0672 0.0000 -10697.1672 1580.6963 0.0000 0.0000 1754.0221 -7350.9372 300.4814 -9104.9593 -7434.4326 299.9259 1351.5004 1454.0054 30104.2160 -58.8572 5.7427
ENERGY: 900000 1.0962 4.0012 4.5666 0.0000 -10656.9061 1445.7997 0.0000 0.0000 1772.0402 -7429.4022 303.5681 -9201.4425 -7446.6835 299.3307 -12.9780 109.2802 30074.9413 -16.5089 49.9325
ENERGY: 1200000 1.9215 3.0440 3.0303 0.0000 -10652.5903 1410.0893 0.0000 0.0000 1704.2895 -7530.2158 291.9617 -9234.5053 -7461.7153 298.4884 -313.4405 -232.7290 30119.8183 -102.3121 -35.5799
ENERGY: 1500000 1.4891 3.3407 5.3958 0.0000 -10561.2613 1427.0087 0.0000 0.0000 1675.8876 -7448.1395 287.0962 -9124.0270 -7453.6293 298.9027 175.1665 245.1372 29923.8132 -34.1925 31.0713
TCL: Running FEP window   9: Lambda1 0.39999999999999997 Lambda2 0.44999999999999996 [dLambda 0.04999999999999999]
TCL: Setting parameter firsttimestep to 0
TCL: Setting parameter alchLambda to 0.39999999999999997
Info: NONBONDED TABLE R-SQUARED SPACING: 0.0625
Info: NONBONDED TABLE SIZE: 705 POINTS
TCL: Setting parameter alchLambda2 to 0.44999999999999996
Info: NONBONDED TABLE R-SQUARED SPACING: 0.0625
Info: NONBONDED TABLE SIZE: 705 POINTS
TCL: Running for 1500000 steps
ETITLE: TS BOND ANGLE DIHED IMPRP ELECT VDW BOUNDARY MISC KINETIC TOTAL TEMP POTENTIAL TOTALAVG TEMPAVG PRESSURE GPRESSURE VOLUME PRESSAVG GPRESSAVG
ENERGY: 0 1.4891 3.3407 5.3958 0.0000 -10561.2609 1427.1918 0.0000 0.0000 1675.0332 -7448.8103 286.9498 -9123.8435 -7448.8103 286.9498 169.4103 254.7414 29923.8132 169.4103 254.7414
ENERGY: 300000 3.4059 4.4158 2.2856 0.0000 -10585.4267 1417.4355 0.0000 0.0000 1700.2078 -7457.6761 291.2625 -9157.8839 -7450.5965 294.4210 -22.0178 37.5307 30042.5451 -132.5038 -83.7472
ENERGY: 600000 0.4817 2.5072 1.3850 0.0000 -10625.8757 1437.6226 0.0000 0.0000 1731.7814 -7452.0979 296.6713 -9183.8793 -7442.1901 297.0491 149.2063 227.5190 29979.4318 -105.9667 -46.9439
ENERGY: 900000 2.9797 2.9281 2.0728 0.0000 -10682.1993 1440.6991 0.0000 0.0000 1715.2470 -7518.2725 293.8388 -9233.5195 -7449.1453 297.8760 35.5492 95.2973 29968.1932 -70.2427 -7.8525
ENERGY: 1200000 2.4214 0.7259 1.6164 0.0000 -10510.5327 1379.9136 0.0000 0.0000 1739.7595 -7386.0959 298.0381 -9125.8554 -7435.3921 299.3577 -295.9443 -260.4290 30439.3910 -56.0592 6.4107
ENERGY: 1500000 3.7687 3.0339 0.8687 0.0000 -10634.3304 1405.2687 0.0000 0.0000 1786.9245 -7434.4659 306.1179 -9221.3904 -7441.7500 299.3807 -333.3874 -302.3130 30507.3700 -99.0108 -37.0136
TCL: Running FEP window  10: Lambda1 0.44999999999999996 Lambda2 0.49999999999999994 [dLambda 0.04999999999999999]
TCL: Setting parameter firsttimestep to 0
TCL: Setting parameter alchLambda to 0.44999999999999996
Info: NONBONDED TABLE R-SQUARED SPACING: 0.0625
Info: NONBONDED TABLE SIZE: 705 POINTS
TCL: Setting parameter alchLambda2 to 0.49999999999999994
Info: NONBONDED TABLE R-SQUARED SPACING: 0.0625
Info: NONBONDED TABLE SIZE: 705 POINTS
TCL: Running for 1500000 steps
ETITLE: TS BOND ANGLE DIHED IMPRP ELECT VDW BOUNDARY MISC KINETIC TOTAL TEMP POTENTIAL TOTALAVG TEMPAVG PRESSURE GPRESSURE VOLUME PRESSAVG GPRESSAVG
ENERGY: 0 3.7687 3.0339 0.8687 0.0000 -10634.3304 1405.5428 0.0000 0.0000 1786.0556 -7435.0607 305.9690 -9221.1163 -7435.0607 305.9690 -377.0020 -294.3050 30507.3700 -377.0020 -294.3050
ENERGY: 300000 1.3959 3.7275 3.9711 0.0000 -10674.1755 1484.4095 0.0000 0.0000 1739.7469 -7440.9246 298.0359 -9180.6715 -7465.8097 299.0800 554.9413 579.2429 30051.2878 -136.3671 -71.9628
ENERGY: 600000 0.4429 2.3243 0.9179 0.0000 -10513.0840 1389.7678 0.0000 0.0000 1772.1068 -7347.5245 303.5795 -9119.6312 -7445.3566 299.5529 -109.7625 -92.7960 30512.2079 -229.7141 -166.0605
ENERGY: 900000 1.8994 1.7539 1.3951 0.0000 -10532.6364 1359.7012 0.0000 0.0000 1703.7444 -7464.1425 291.8683 -9167.8869 -7454.4455 298.0279 -741.1925 -666.9076 30514.0061 -222.4340 -149.8952
ENERGY: 1200000 0.8910 2.9607 1.3280 0.0000 -10660.7852 1461.9670 0.0000 0.0000 1748.7861 -7444.8524 299.5844 -9193.6385 -7452.0630 297.6415 333.9913 346.7308 30132.0054 -144.9333 -77.1005
ENERGY: 1500000 0.3507 1.3440 1.9041 0.0000 -10668.7572 1459.1010 0.0000 0.0000 1742.8114 -7463.2460 298.5609 -9206.0574 -7455.8443 298.8722 198.6241 259.3804 30144.5117 -126.7884 -55.3538
TCL: Running FEP window  11: Lambda1 0.49999999999999994 Lambda2 0.5499999999999999 [dLambda 0.04999999999999999]
TCL: Setting parameter firsttimestep to 0
TCL: Setting parameter alchLambda to 0.49999999999999994
Info: NONBONDED TABLE R-SQUARED SPACING: 0.0625
Info: NONBONDED TABLE SIZE: 705 POINTS
TCL: Setting parameter alchLambda2 to 0.5499999999999999
Info: NONBONDED TABLE R-SQUARED SPACING: 0.0625
Info: NONBONDED TABLE SIZE: 705 POINTS
TCL: Running for 1500000 steps
ETITLE: TS BOND ANGLE DIHED IMPRP ELECT VDW BOUNDARY MISC KINETIC TOTAL TEMP POTENTIAL TOTALAVG TEMPAVG PRESSURE GPRESSURE VOLUME PRESSAVG GPRESSAVG
ENERGY: 0 0.3507 1.3440 1.9041 0.0000 -10668.7571 1460.1344 0.0000 0.0000 1741.9497 -7463.0742 298.4133 -9205.0239 -7463.0742 298.4133 187.9433 273.0892 30144.5117 187.9433 273.0892
ENERGY: 300000 4.1998 2.5704 3.1606 0.0000 -10666.4140 1417.5580 0.0000 0.0000 1781.2692 -7457.6561 305.1491 -9238.9253 -7465.5757 302.9832 -334.5263 -252.8156 30228.1788 242.5502 315.2936
ENERGY: 600000 0.7176 6.3676 6.8037 0.0000 -10722.0601 1492.6605 0.0000 0.0000 1719.2207 -7496.2900 294.5196 -9215.5107 -7440.8276 301.5423 386.8704 463.9196 30054.3158 166.7035 226.9370
ENERGY: 900000 1.6169 1.7695 2.9398 0.0000 -10714.8535 1451.2052 0.0000 0.0000 1729.7582 -7527.5638 296.3247 -9257.3220 -7436.1496 301.1450 -32.8053 -2.3522 29996.0600 76.7025 138.1284
ENERGY: 1200000 1.9217 3.9299 2.9193 0.0000 -10543.7401 1422.1453 0.0000 0.0000 1809.8540 -7302.9699 310.0460 -9112.8240 -7427.0417 301.8028 30.4868 87.2752 30621.9355 -1.0415 56.4238
ENERGY: 1500000 3.8945 4.0298 2.0173 0.0000 -10717.2912 1471.2393 0.0000 0.0000 1712.6743 -7523.4360 293.3981 -9236.1103 -7434.1376 301.6223 308.5887 428.3532 29453.0957 3.8594 63.6650
TCL: Running FEP window  12: Lambda1 0.5499999999999999 Lambda2 0.6    [dLambda 0.050000000000000044]
TCL: Setting parameter firsttimestep to 0
TCL: Setting parameter alchLambda to 0.5499999999999999
Info: NONBONDED TABLE R-SQUARED SPACING: 0.0625
Info: NONBONDED TABLE SIZE: 705 POINTS
TCL: Setting parameter alchLambda2 to 0.6
Info: NONBONDED TABLE R-SQUARED SPACING: 0.0625
Info: NONBONDED TABLE SIZE: 705 POINTS
TCL: Running for 1500000 steps
ETITLE: TS BOND ANGLE DIHED IMPRP ELECT VDW BOUNDARY MISC KINETIC TOTAL TEMP POTENTIAL TOTALAVG TEMPAVG PRESSURE GPRESSURE VOLUME PRESSAVG GPRESSAVG
ENERGY: 0 3.8945 4.0298 2.0173 0.0000 -10717.3199 1471.6366 0.0000 0.0000 1711.7788 -7523.9629 293.2447 -9235.7417 -7523.9629 293.2447 351.3532 437.1397 29453.0957 351.3532 437.1397
ENERGY: 300000 5.0038 1.6006 1.9954 0.0000 -10583.7375 1458.3644 0.0000 0.0000 1766.8738 -7349.8995 302.6830 -9116.7733 -7443.0098 300.8494 178.1606 253.5206 30626.0437 63.0988 137.9755
ENERGY: 600000 2.4019 3.0527 0.6708 0.0000 -10681.0409 1471.6709 0.0000 0.0000 1747.6852 -7455.5593 299.3958 -9203.2445 -7457.3208 300.8088 98.5650 188.0372 30320.4616 -39.6590 38.2842
ENERGY: 900000 1.9550 3.8826 2.7527 0.0000 -10599.7965 1396.1895 0.0000 0.0000 1787.1164 -7407.9003 306.1508 -9195.0167 -7443.4978 300.5474 -89.2506 -59.0411 29997.3516 -218.9548 -151.2537
ENERGY: 1200000 2.7780 3.2439 1.4990 0.0000 -10577.0828 1382.4446 0.0000 0.0000 1775.8534 -7411.2638 304.2213 -9187.1172 -7440.3057 301.0440 -361.5660 -334.6625 30100.7223 -174.4563 -116.6115
ENERGY: 1500000 2.5917 2.8087 4.0421 0.0000 -10612.4237 1426.0044 0.0000 0.0000 1775.7549 -7401.2219 304.2044 -9176.9768 -7436.2599 301.4815 63.6498 174.2529 30234.4360 -173.0329 -112.0844
TCL: Running FEP window  13: Lambda1 0.6    Lambda2 0.65   [dLambda 0.050000000000000044]
TCL: Setting parameter firsttimestep to 0
TCL: Setting parameter alchLambda to 0.6
Info: NONBONDED TABLE R-SQUARED SPACING: 0.0625
Info: NONBONDED TABLE SIZE: 705 POINTS
TCL: Setting parameter alchLambda2 to 0.65
Info: NONBONDED TABLE R-SQUARED SPACING: 0.0625
Info: NONBONDED TABLE SIZE: 705 POINTS
TCL: Running for 1500000 steps
ETITLE: TS BOND ANGLE DIHED IMPRP ELECT VDW BOUNDARY MISC KINETIC TOTAL TEMP POTENTIAL TOTALAVG TEMPAVG PRESSURE GPRESSURE VOLUME PRESSAVG GPRESSAVG
ENERGY: 0 2.5917 2.8087 4.0421 0.0000 -10612.5842 1426.6707 0.0000 0.0000 1774.8914 -7401.5796 304.0565 -9176.4710 -7401.5796 304.0565 90.5434 182.3824 30234.4360 90.5434 182.3824
ENERGY: 300000 2.8178 3.0468 1.8732 0.0000 -10653.9289 1417.2023 0.0000 0.0000 1790.6466 -7438.3422 306.7555 -9228.9888 -7431.7201 301.5012 -213.4515 -155.1909 30088.3544 -169.6078 -99.1160
ENERGY: 600000 1.6281 0.8791 1.1259 0.0000 -10575.3536 1427.6994 0.0000 0.0000 1807.4039 -7336.6172 309.6262 -9144.0211 -7398.5599 304.0023 24.9268 20.7902 30546.4714 -23.3514 33.5938
ENERGY: 900000 3.4797 4.7313 0.9270 0.0000 -10577.2180 1487.1671 0.0000 0.0000 1790.4667 -7290.4462 306.7247 -9080.9129 -7402.6916 303.1452 675.4607 749.5093 30700.0336 112.1220 179.9365
ENERGY: 1200000 2.5657 3.9966 3.5675 0.0000 -10714.9058 1482.7797 0.0000 0.0000 1796.1957 -7425.8007 307.7061 -9221.9963 -7421.5509 302.3585 194.4647 217.9279 30426.8612 169.7149 233.1884
ENERGY: 1500000 2.1333 3.9948 4.9108 0.0000 -10706.6443 1502.5265 0.0000 0.0000 1735.9574 -7457.1215 297.3867 -9193.0789 -7422.8307 301.8283 740.2350 802.5340 29916.8427 190.8346 258.7192
TCL: Running FEP window  14: Lambda1 0.65   Lambda2 0.7000000000000001 [dLambda 0.050000000000000044]
TCL: Setting parameter firsttimestep to 0
TCL: Setting parameter alchLambda to 0.65
Info: NONBONDED TABLE R-SQUARED SPACING: 0.0625
Info: NONBONDED TABLE SIZE: 705 POINTS
TCL: Setting parameter alchLambda2 to 0.7000000000000001
Info: NONBONDED TABLE R-SQUARED SPACING: 0.0625
Info: NONBONDED TABLE SIZE: 705 POINTS
TCL: Running for 1500000 steps
ETITLE: TS BOND ANGLE DIHED IMPRP ELECT VDW BOUNDARY MISC KINETIC TOTAL TEMP POTENTIAL TOTALAVG TEMPAVG PRESSURE GPRESSURE VOLUME PRESSAVG GPRESSAVG
ENERGY: 0 2.1333 3.9948 4.9108 0.0000 -10707.0052 1502.3243 0.0000 0.0000 1735.0664 -7458.5755 297.2341 -9193.6419 -7458.5755 297.2341 725.6191 804.3613 29916.8427 725.6191 804.3613
ENERGY: 300000 0.6339 2.4505 3.1708 0.0000 -10688.8151 1443.2463 0.0000 0.0000 1841.2681 -7398.0454 315.4275 -9239.3135 -7443.3967 302.5035 64.8781 183.5511 30134.7965 -8.0192 68.5935
ENERGY: 600000 2.1130 4.0998 2.1514 0.0000 -10688.6567 1490.3771 0.0000 0.0000 1711.0785 -7478.8369 293.1247 -9189.9154 -7447.3733 299.7516 511.3256 582.2595 29987.0832 255.6049 321.4016
ENERGY: 900000 3.2593 1.6440 2.7357 0.0000 -10640.1215 1434.6303 0.0000 0.0000 1746.5946 -7451.2576 299.2090 -9197.8522 -7440.5155 300.4218 -265.9498 -191.2754 30503.8528 222.2437 287.7884
ENERGY: 1200000 2.6867 2.5615 0.5365 0.0000 -10592.2409 1452.5359 0.0000 0.0000 1729.6854 -7404.2348 296.3123 -9133.9202 -7442.6082 299.9207 350.1460 470.4464 30360.8788 145.9550 215.9223
ENERGY: 1500000 3.3087 3.5136 3.2460 0.0000 -10637.9547 1489.5057 0.0000 0.0000 1782.0419 -7356.3389 305.2815 -9138.3808 -7429.3541 300.4114 519.7659 601.7536 30324.6321 141.3912 217.2802
TCL: Running FEP window  15: Lambda1 0.7000000000000001 Lambda2 0.7500000000000001 [dLambda 0.050000000000000044]
TCL: Setting parameter firsttimestep to 0
TCL: Setting parameter alchLambda to 0.7000000000000001
Info: NONBONDED TABLE R-SQUARED SPACING: 0.0625
Info: NONBONDED TABLE SIZE: 705 POINTS
TCL: Setting parameter alchLambda2 to 0.7500000000000001
Info: NONBONDED TABLE R-SQUARED SPACING: 0.0625
Info: NONBONDED TABLE SIZE: 705 POINTS
TCL: Running for 1500000 steps
ETITLE: TS BOND ANGLE DIHED IMPRP ELECT VDW BOUNDARY MISC KINETIC TOTAL TEMP POTENTIAL TOTALAVG TEMPAVG PRESSURE GPRESSURE VOLUME PRESSAVG GPRESSAVG
ENERGY: 0 3.3087 3.5136 3.2460 0.0000 -10638.1125 1489.9940 0.0000 0.0000 1781.1958 -7356.8545 305.1365 -9138.0503 -7356.8545 305.1365 527.6306 612.8759 30324.6321 527.6306 612.8759
ENERGY: 300000 2.0949 1.0250 6.0947 0.0000 -10672.8128 1465.1953 0.0000 0.0000 1795.2474 -7403.1555 307.5437 -9198.4029 -7395.2881 304.1215 291.6852 399.6408 30123.4057 311.4778 383.4501
ENERGY: 600000 2.2650 4.0333 2.8633 0.0000 -10622.5189 1451.9794 0.0000 0.0000 1776.6674 -7384.7106 304.3608 -9161.3780 -7410.0423 302.1993 277.0965 298.4840 30251.7822 319.2950 382.5146
ENERGY: 900000 3.5594 1.5468 2.2462 0.0000 -10567.2103 1388.0036 0.0000 0.0000 1755.8346 -7416.0195 300.7919 -9171.8542 -7404.4625 302.6612 -276.1314 -188.5164 30338.8406 98.2034 161.0805
ENERGY: 1200000 1.9355 0.9868 2.7320 0.0000 -10561.1116 1356.9593 0.0000 0.0000 1720.6597 -7477.8383 294.7661 -9198.4980 -7416.3736 301.1963 -661.5442 -553.7415 30104.3393 -49.0028 16.5979
ENERGY: 1500000 1.4379 1.3374 2.4597 0.0000 -10531.9697 1378.6927 0.0000 0.0000 1765.9695 -7382.0725 302.5281 -9148.0421 -7418.3577 301.3634 -224.6631 -211.0777 30223.8903 -41.7090 18.6798
TCL: Running FEP window  16: Lambda1 0.7500000000000001 Lambda2 0.8000000000000002 [dLambda 0.050000000000000044]
TCL: Setting parameter firsttimestep to 0
TCL: Setting parameter alchLambda to 0.7500000000000001
Info: NONBONDED TABLE R-SQUARED SPACING: 0.0625
Info: NONBONDED TABLE SIZE: 705 POINTS
TCL: Setting parameter alchLambda2 to 0.8000000000000002
Info: NONBONDED TABLE R-SQUARED SPACING: 0.0625
Info: NONBONDED TABLE SIZE: 705 POINTS
TCL: Running for 1500000 steps
ETITLE: TS BOND ANGLE DIHED IMPRP ELECT VDW BOUNDARY MISC KINETIC TOTAL TEMP POTENTIAL TOTALAVG TEMPAVG PRESSURE GPRESSURE VOLUME PRESSAVG GPRESSAVG
ENERGY: 0 1.4379 1.3374 2.4597 0.0000 -10532.3547 1378.3306 0.0000 0.0000 1765.1397 -7383.6495 302.3859 -9148.7892 -7383.6495 302.3859 -281.9906 -207.8623 30223.8903 -281.9906 -207.8623
ENERGY: 300000 1.9537 2.1969 2.1227 0.0000 -10789.4664 1506.0474 0.0000 0.0000 1786.8659 -7490.2798 306.1079 -9277.1456 -7414.2362 300.0278 467.0400 510.0695 29978.5231 -18.0582 27.6490
ENERGY: 600000 2.1497 0.9609 2.1593 0.0000 -10510.1653 1379.7542 0.0000 0.0000 1771.3369 -7353.8043 303.4476 -9125.1412 -7403.7884 302.3923 -60.9061 -40.6066 30194.3164 54.2370 92.3049
ENERGY: 900000 4.2627 5.1936 3.4720 0.0000 -10812.4943 1547.2995 0.0000 0.0000 1762.2854 -7489.9811 301.8970 -9252.2665 -7433.0733 302.0131 746.6300 768.9769 30053.1458 167.7728 214.6519
ENERGY: 1200000 1.8940 3.0275 3.3082 0.0000 -10937.4914 1620.7507 0.0000 0.0000 1790.2009 -7518.3102 306.6792 -9308.5111 -7446.6859 302.6630 1320.3013 1406.9881 29774.0471 198.7745 252.1426
ENERGY: 1500000 0.9740 2.9130 3.4485 0.0000 -10796.7031 1565.3774 0.0000 0.0000 1802.9063 -7421.0838 308.8557 -9223.9901 -7454.9309 302.3749 915.3208 947.3654 30422.3315 107.5901 155.2018
TCL: Running FEP window  17: Lambda1 0.8000000000000002 Lambda2 0.8500000000000002 [dLambda 0.050000000000000044]
TCL: Setting parameter firsttimestep to 0
TCL: Setting parameter alchLambda to 0.8000000000000002
Info: NONBONDED TABLE R-SQUARED SPACING: 0.0625
Info: NONBONDED TABLE SIZE: 705 POINTS
TCL: Setting parameter alchLambda2 to 0.8500000000000002
Info: NONBONDED TABLE R-SQUARED SPACING: 0.0625
Info: NONBONDED TABLE SIZE: 705 POINTS
TCL: Running for 1500000 steps
ETITLE: TS BOND ANGLE DIHED IMPRP ELECT VDW BOUNDARY MISC KINETIC TOTAL TEMP POTENTIAL TOTALAVG TEMPAVG PRESSURE GPRESSURE VOLUME PRESSAVG GPRESSAVG
ENERGY: 0 0.9740 2.9130 3.4485 0.0000 -10797.1721 1564.9189 0.0000 0.0000 1802.0471 -7422.8706 308.7085 -9224.9177 -7422.8706 308.7085 877.7319 950.2677 30422.3315 877.7319 950.2677
ENERGY: 300000 4.1544 3.2823 2.6400 0.0000 -10531.9440 1404.9275 0.0000 0.0000 1729.5033 -7387.4364 296.2811 -9116.9398 -7468.8125 295.6878 95.7744 205.5805 29759.2492 278.7382 361.8623
ENERGY: 600000 4.1459 1.5852 0.9416 0.0000 -10602.0867 1491.5026 0.0000 0.0000 1738.1238 -7365.7876 297.7578 -9103.9114 -7450.0118 298.1067 784.6559 880.7427 30288.5113 250.3159 324.3388
ENERGY: 900000 2.9928 4.5675 1.8750 0.0000 -10692.4060 1400.1614 0.0000 0.0000 1797.3120 -7485.4974 307.8974 -9282.8094 -7451.4946 299.6499 -196.2572 -128.7857 29606.7907 308.9048 374.3030
ENERGY: 1200000 2.5624 2.1155 1.9611 0.0000 -10747.8977 1502.7588 0.0000 0.0000 1733.3131 -7505.1868 296.9337 -9238.4999 -7460.1892 300.0331 314.7625 389.2109 30245.1472 310.2071 379.7268
ENERGY: 1500000 1.2063 2.5625 3.7389 0.0000 -10679.6844 1425.3819 0.0000 0.0000 1757.9099 -7488.8849 301.1474 -9246.7948 -7464.1574 299.8636 -239.2726 -176.1580 30114.2358 204.7897 267.9213
TCL: Running FEP window  18: Lambda1 0.8500000000000002 Lambda2 0.9000000000000002 [dLambda 0.050000000000000044]
TCL: Setting parameter firsttimestep to 0
TCL: Setting parameter alchLambda to 0.8500000000000002
Info: NONBONDED TABLE R-SQUARED SPACING: 0.0625
Info: NONBONDED TABLE SIZE: 705 POINTS
TCL: Setting parameter alchLambda2 to 0.9000000000000002
Info: NONBONDED TABLE R-SQUARED SPACING: 0.0625
Info: NONBONDED TABLE SIZE: 705 POINTS
TCL: Running for 1500000 steps
ETITLE: TS BOND ANGLE DIHED IMPRP ELECT VDW BOUNDARY MISC KINETIC TOTAL TEMP POTENTIAL TOTALAVG TEMPAVG PRESSURE GPRESSURE VOLUME PRESSAVG GPRESSAVG
ENERGY: 0 1.2063 2.5625 3.7389 0.0000 -10679.8911 1425.3519 0.0000 0.0000 1757.0005 -7490.0310 300.9916 -9247.0315 -7490.0310 300.9916 -240.8308 -167.8319 30114.2358 -240.8308 -167.8319
ENERGY: 300000 2.1656 3.6866 1.8971 0.0000 -10647.0820 1454.0499 0.0000 0.0000 1746.0900 -7439.1929 299.1225 -9185.2829 -7488.9877 298.5233 108.9229 210.3778 30232.2829 169.6894 251.7082
ENERGY: 600000 3.7214 3.1715 2.8398 0.0000 -10736.6624 1483.1238 0.0000 0.0000 1765.5834 -7478.2225 302.4619 -9243.8059 -7460.2438 299.4404 153.7826 222.8800 30298.8547 -8.9148 51.3940
ENERGY: 900000 1.7489 1.9958 2.3554 0.0000 -10570.1713 1411.2848 0.0000 0.0000 1715.6712 -7437.1152 293.9115 -9152.7864 -7440.3172 300.2791 -209.7641 -135.1499 30521.3309 -68.4727 -2.7674
ENERGY: 1200000 1.0670 5.5139 6.4435 0.0000 -10549.7578 1369.3531 0.0000 0.0000 1688.3213 -7479.0590 289.2262 -9167.3804 -7443.1506 299.5846 -471.8935 -409.6285 30476.7154 -106.6944 -50.3981
ENERGY: 1500000 2.7568 3.3515 2.1801 0.0000 -10622.0169 1400.8773 0.0000 0.0000 1749.1731 -7463.6780 299.6507 -9212.8511 -7448.6204 298.9609 -335.9472 -321.8773 30406.1065 -124.8495 -70.6909
TCL: Running FEP window  19: Lambda1 0.9000000000000002 Lambda2 0.9500000000000003 [dLambda 0.050000000000000044]
TCL: Setting parameter firsttimestep to 0
TCL: Setting parameter alchLambda to 0.9000000000000002
Info: NONBONDED TABLE R-SQUARED SPACING: 0.0625
Info: NONBONDED TABLE SIZE: 705 POINTS
TCL: Setting parameter alchLambda2 to 0.9500000000000003
Info: NONBONDED TABLE R-SQUARED SPACING: 0.0625
Info: NONBONDED TABLE SIZE: 705 POINTS
TCL: Running for 1500000 steps
ETITLE: TS BOND ANGLE DIHED IMPRP ELECT VDW BOUNDARY MISC KINETIC TOTAL TEMP POTENTIAL TOTALAVG TEMPAVG PRESSURE GPRESSURE VOLUME PRESSAVG GPRESSAVG
ENERGY: 0 2.7568 3.3515 2.1801 0.0000 -10622.4159 1400.9810 0.0000 0.0000 1748.2312 -7464.9153 299.4893 -9213.1465 -7464.9153 299.4893 -394.6468 -314.4150 30406.1065 -394.6468 -314.4150
ENERGY: 300000 3.5606 1.6110 2.2241 0.0000 -10616.4426 1387.5698 0.0000 0.0000 1774.1330 -7447.3442 303.9266 -9221.4771 -7439.3461 303.4474 -277.5453 -234.1920 30046.7202 -188.3630 -149.0187
ENERGY: 600000 2.5271 3.2322 3.2442 0.0000 -10686.4946 1501.2128 0.0000 0.0000 1762.9014 -7413.3769 302.0025 -9176.2783 -7435.8500 302.2271 519.2707 619.9280 30428.2632 30.1009 76.7100
ENERGY: 900000 1.5462 1.0554 4.7704 0.0000 -10788.1290 1548.8106 0.0000 0.0000 1748.3535 -7483.5929 299.5103 -9231.9464 -7444.5689 301.6686 970.2146 987.4587 29807.6676 -89.9575 -40.2286
ENERGY: 1200000 2.4757 2.4754 2.5420 0.0000 -10486.4629 1350.4811 0.0000 0.0000 1755.2152 -7373.2735 300.6858 -9128.4888 -7436.0452 300.7471 -466.7964 -403.1057 30460.1599 -119.8142 -66.4251
ENERGY: 1500000 0.2990 4.1425 7.4202 0.0000 -10616.6597 1426.5766 0.0000 0.0000 1735.9463 -7442.2751 297.3848 -9178.2214 -7444.8521 300.1822 167.1855 217.4117 29992.0010 -181.5842 -130.6776
TCL: Running FEP window  20: Lambda1 0.9500000000000003 Lambda2 1.0    [dLambda 0.04999999999999971]
TCL: Setting parameter firsttimestep to 0
TCL: Setting parameter alchLambda to 0.9500000000000003
Info: NONBONDED TABLE R-SQUARED SPACING: 0.0625
Info: NONBONDED TABLE SIZE: 705 POINTS
TCL: Setting parameter alchLambda2 to 1.0
Info: NONBONDED TABLE R-SQUARED SPACING: 0.0625
Info: NONBONDED TABLE SIZE: 705 POINTS
TCL: Running for 1500000 steps
ETITLE: TS BOND ANGLE DIHED IMPRP ELECT VDW BOUNDARY MISC KINETIC TOTAL TEMP POTENTIAL TOTALAVG TEMPAVG PRESSURE GPRESSURE VOLUME PRESSAVG GPRESSAVG
ENERGY: 0 0.2990 4.1425 7.4202 0.0000 -10617.2487 1427.4252 0.0000 0.0000 1735.0496 -7442.9122 297.2312 -9177.9618 -7442.9122 297.2312 155.5778 239.3369 29992.0010 155.5778 239.3369
ENERGY: 300000 0.6095 2.3329 2.7562 0.0000 -10596.3056 1407.1813 0.0000 0.0000 1733.6081 -7449.8175 296.9843 -9183.4256 -7458.3030 301.9308 -168.9521 -49.3779 30399.3433 -190.2496 -97.1973
ENERGY: 600000 2.3701 1.0736 2.1055 0.0000 -10571.5340 1386.1107 0.0000 0.0000 1719.9701 -7459.9041 294.6479 -9179.8742 -7462.5592 300.8261 -280.6884 -270.3866 30163.1938 -44.3865 31.9120
ENERGY: 900000 1.1959 5.2437 5.1814 0.0000 -10434.0665 1317.0961 0.0000 0.0000 1726.5298 -7378.8196 295.7717 -9105.3494 -7452.6293 300.5571 -704.4532 -686.3252 30500.1185 -155.1262 -85.3938
ENERGY: 1200000 2.0207 6.2114 3.7775 0.0000 -10636.1781 1429.8584 0.0000 0.0000 1727.6861 -7466.6240 295.9698 -9194.3101 -7454.9903 299.6757 232.0119 305.1335 29742.2278 -182.8419 -114.0643
ENERGY: 1500000 5.0459 2.0855 1.1801 0.0000 -10581.0711 1359.8334 0.0000 0.0000 1742.6219 -7470.3043 298.5284 -9212.9262 -7449.6298 300.1510 -703.0898 -627.4168 30476.4686 -227.0997 -154.5939
TCL: Exiting due to exit command.
