Info: SIMULATION PARAMETERS:
Info: TIMESTEP               2
Info: NUMBER OF STEPS        0
Info: STEPS PER CYCLE        10
Info: PERIODIC CELL BASIS 1  31.9388 0 0
Info: PERIODIC CELL BASIS 2  0 30.5435 0
Info: PERIODIC CELL BASIS 3  0 0 31.4476
Info: PERIODIC CELL CENTER   0 0 0
Info: WRAPPING WATERS AROUND PERIODIC BOUNDARIES ON OUTPUT.
Info: WRAPPING ALL CLUSTERS AROUND PERIODIC BOUNDARIES ON OUTPUT.
Info: FIRST LDB TIMESTEP     50
Info: LAST LDB TIMESTEP     -1
Info: HOM BACKGROUND SCALING 1
Info: PME BACKGROUND SCALING 1
Info: MIN ATOMS PER PATCH    40
Info: EMPTY PATCH LOAD       40 ATOMS
Info: VELOCITY FILE          mobley_7794077_equil.vel
Info: CENTER OF MASS MOVING INITIALLY? NO
Info: DIELECTRIC             1
Info: EXCLUDE                SCALED ONE-FOUR
Info: 1-4 ELECTROSTATICS SCALED BY 0.833333
Info: MODIFIED 1-4 VDW PARAMETERS WILL BE USED
Info: DCD FILENAME           mobley_7794077_prod.dcd
Info: DCD FREQUENCY          100000
Info: DCD FIRST STEP         100000
Info: DCD FILE WILL CONTAIN UNIT CELL DATA
Info: XST FILENAME           mobley_7794077_prod.xst
Info: XST FREQUENCY          100000
Info: NO VELOCITY DCD OUTPUT
Info: NO FORCE DCD OUTPUT
Info: OUTPUT FILENAME        mobley_7794077_prod
Info: BINARY OUTPUT FILES WILL BE USED
Info: RESTART FILENAME       mobley_7794077_prod.restart
Info: RESTART FREQUENCY      100000
Info: BINARY RESTART FILES WILL BE USED
Info: CUTOFF                 9
Info: PAIRLIST DISTANCE      11
Info: PAIRLIST SHRINK RATE   0.01
Info: PAIRLIST GROW RATE     0.01
Info: PAIRLIST TRIGGER       0.3
Info: PAIRLISTS PER CYCLE    2
Info: PAIRLISTS ENABLED
Info: MARGIN                 2
Info: HYDROGEN GROUP CUTOFF  2.5
Info: PATCH DIMENSION        15.5
Info: ENERGY OUTPUT STEPS    100000
Info: ENERGY EVALUATION STEPS    100000
Info: OUTPUT ENERGY PRECISION 4
Info: CROSSTERM ENERGY INCLUDED IN DIHEDRAL
Info: TIMING OUTPUT STEPS    1000000
Info: PRESSURE OUTPUT STEPS  100000
Info: ALCHEMICAL FEP ON
Info: FEP CURRENT LAMBDA VALUE     0
Info: FEP COMPARISON LAMBDA VALUE  0.05
Info: FEP INTRA-ALCHEMICAL NON-BONDED INTERACTIONS WILL BE RETAINED
Info: FEP INTRA-ALCHEMICAL BONDED INTERACTIONS WILL BE RETAINED
Info: FEP VDW SHIFTING COEFFICIENT 5
Info: FEP ELEC. ACTIVE FOR ANNIHILATED PARTICLES BETWEEN LAMBDA = 0 AND LAMBDA = 0.5
Info: FEP ELEC. ACTIVE FOR EXNIHILATED PARTICLES BETWEEN LAMBDA = 0.5 AND LAMBDA = 1
Info: FEP VDW ACTIVE FOR ANNIHILATED PARTICLES BETWEEN LAMBDA = 0 AND LAMBDA = 1
Info: FEP VDW ACTIVE FOR EXNIHILATED PARTICLES BETWEEN LAMBDA = 0 AND LAMBDA = 1
Info: FEP BOND ACTIVE FOR ANNIHILATED PARTICLES BETWEEN LAMBDA = 1 AND LAMBDA = 1
Info: FEP BOND ACTIVE FOR EXNIHILATED PARTICLES BETWEEN LAMBDA = 0 AND LAMBDA = 0
Info: LANGEVIN DYNAMICS ACTIVE
Info: LANGEVIN TEMPERATURE   300
Info: LANGEVIN USING BBK INTEGRATOR
Info: LANGEVIN DAMPING COEFFICIENT IS 1 INVERSE PS
Info: LANGEVIN DYNAMICS APPLIED TO HYDROGENS
Info: LANGEVIN PISTON PRESSURE CONTROL ACTIVE
Info:        TARGET PRESSURE IS 1.01325 BAR
Info:     OSCILLATION PERIOD IS 50 FS
Info:             DECAY TIME IS 25 FS
Info:     PISTON TEMPERATURE IS 300 K
Info:       PRESSURE CONTROL IS GROUP-BASED
Info:    INITIAL STRAIN RATE IS -0.000682461 -0.000682461 -0.000682461
Info:       CELL FLUCTUATION IS ISOTROPIC
Info: PARTICLE MESH EWALD (PME) ACTIVE
Info: PME TOLERANCE               1e-06
Info: PME EWALD COEFFICIENT       0.348832
Info: PME INTERPOLATION ORDER     4
Info: PME GRID DIMENSIONS         32 32 32
Info: PME MAXIMUM GRID SPACING    1
Info: PME CALCULATION WILL BE PERFORMED ON GPU
Info: FULL ELECTROSTATIC EVALUATION FREQUENCY      2
Info: USING VERLET I (r-RESPA) MTS SCHEME.
Info: C1 SPLITTING OF LONG RANGE ELECTROSTATICS
Info: PLACING ATOMS IN PATCHES BY HYDROGEN GROUPS
Info: RIGID BONDS TO HYDROGEN : ALL
Info:         ERROR TOLERANCE : 1e-08
Info:          MAX ITERATIONS : 100
Info: RIGID WATER USING SETTLE ALGORITHM
Info: RANDOM NUMBER SEED     1742263241
Info: USE HYDROGEN BONDS?    NO
Info: Using AMBER format force field!
Info: AMBER PARM FILE        mobley_7794077.prmtop
Info: COORDINATE PDB         mobley_7794077.pdb
Info: Exclusions will be read from PARM file!
Info: SCNB (VDW SCALING)     2
Info: USING ARITHMETIC MEAN TO COMBINE L-J SIGMA PARAMETERS
Info: BINARY COORDINATES     mobley_7794077_equil.coor
Info: SUMMARY OF PARAMETERS:
Info: 11 BONDS
Info: 16 ANGLES
Info:   16 HARMONIC
Info:   0 COSINE-BASED
Info: 8 DIHEDRAL
Info: 0 IMPROPER
Info: 0 CROSSTERM
Info: 0 VDW
Info: 45 VDW_PAIRS
Info: 0 NBTHOLE_PAIRS
Info: To read alchdata from file: mobley_7794077.pdb
Info: To read alchflag data from column: 5
Info: STRUCTURE SUMMARY:
Info: 2988 ATOMS
Info: 2988 BONDS
Info: 24 ANGLES
Info: 37 DIHEDRALS
Info: 0 IMPROPERS
Info: 0 CROSSTERMS
Info: 3039 EXCLUSIONS
Info: 2976 RIGID BONDS
Info: ALCH: 0 ATOMS TO DISAPPEAR IN FINAL STATE
Info: ALCH: 15 ATOMS TO APPEAR IN FINAL STATE
Info: 5988 DEGREES OF FREEDOM
Info: 1003 HYDROGEN GROUPS
Info: 3 ATOMS IN LARGEST HYDROGEN GROUP
Info: 1003 MIGRATION GROUPS
Info: 3 ATOMS IN LARGEST MIGRATION GROUP
Info: TOTAL MASS = 18034 amu
Info: TOTAL CHARGE = 9.98527e-05 e
Info: MASS DENSITY = 0.976169 g/cm^3
Info: ATOM DENSITY = 0.0973992 atoms/A^3
Info: ADDED 0 IMPLICIT EXCLUSIONS
Info: NONBONDED TABLE R-SQUARED SPACING: 0.0625
Info: NONBONDED TABLE SIZE: 705 POINTS
Info: REMOVING COM VELOCITY -0.0594769 -0.104396 0.0383065
Info: Use 3D box decompostion in PME FFT.
Info: Updated CUDA force table with 4096 elements.
Info: Updated CUDA LJ table with 9 x 9 elements.
Info: Found 17 unique exclusion lists needing 40 bytes
TCL: Running for 1500000 steps
ETITLE: TS BOND ANGLE DIHED IMPRP ELECT VDW BOUNDARY MISC KINETIC TOTAL TEMP POTENTIAL TOTALAVG TEMPAVG PRESSURE GPRESSURE VOLUME PRESSAVG GPRESSAVG
ENERGY: 0 5.0813 5.6427 15.8459 0.0000 -11127.5294 1538.7662 0.0000 0.0000 1767.2749 -7794.9183 297.0385 -9562.1932 -7794.9183 297.0385 683.2620 770.3691 30677.8660 683.2620 770.3691
ENERGY: 300000 6.1387 4.7440 13.9971 0.0000 -11093.0251 1476.6535 0.0000 0.0000 1819.9828 -7771.5090 305.8975 -9591.4918 -7770.3532 301.3538 88.4224 214.7408 30554.2147 60.5427 133.3051
ENERGY: 600000 2.4055 5.5021 16.2336 0.0000 -11016.8740 1395.0573 0.0000 0.0000 1816.9886 -7780.6868 305.3942 -9597.6754 -7777.3227 301.4368 -781.5116 -659.4226 30937.4571 -75.3109 12.5465
ENERGY: 900000 5.3651 6.6641 13.4838 0.0000 -11075.9859 1487.3769 0.0000 0.0000 1718.2299 -7844.8661 288.7951 -9563.0960 -7787.7319 300.3454 191.7735 269.5923 30480.6157 -20.0312 65.4433
ENERGY: 1200000 5.4063 6.9022 15.1295 0.0000 -10973.7451 1470.1172 0.0000 0.0000 1773.5465 -7702.6434 298.0926 -9476.1899 -7786.7408 299.7480 280.7321 356.5620 30661.7892 -37.5326 45.6028
ENERGY: 1500000 5.5819 9.9257 13.9795 0.0000 -11142.3709 1501.1853 0.0000 0.0000 1766.5405 -7845.1579 296.9150 -9611.6984 -7794.5587 300.3914 206.9442 237.3828 30614.0998 45.9154 122.0684
TCL: Running FEP window   2: Lambda1 0.05   Lambda2 0.1    [dLambda 0.05  ]
TCL: Setting parameter firsttimestep to 0
TCL: Setting parameter alchLambda to 0.05
Info: NONBONDED TABLE R-SQUARED SPACING: 0.0625
Info: NONBONDED TABLE SIZE: 705 POINTS
TCL: Setting parameter alchLambda2 to 0.1
Info: NONBONDED TABLE R-SQUARED SPACING: 0.0625
Info: NONBONDED TABLE SIZE: 705 POINTS
TCL: Running for 1500000 steps
ETITLE: TS BOND ANGLE DIHED IMPRP ELECT VDW BOUNDARY MISC KINETIC TOTAL TEMP POTENTIAL TOTALAVG TEMPAVG PRESSURE GPRESSURE VOLUME PRESSAVG GPRESSAVG
ENERGY: 0 5.5819 9.9257 13.9795 0.0000 -11142.3713 1502.8593 0.0000 0.0000 1765.6616 -7844.3633 296.7673 -9610.0248 -7844.3633 296.7673 161.4190 241.3088 30614.0998 161.4190 241.3088
ENERGY: 300000 4.6934 6.6503 14.1495 0.0000 -11128.0893 1466.7352 0.0000 0.0000 1804.9047 -7830.9562 303.3632 -9635.8609 -7849.0043 296.3256 -543.1669 -553.8030 31106.0407 -403.0954 -356.8304
ENERGY: 600000 3.1536 6.0833 13.1141 0.0000 -10940.3865 1390.3900 0.0000 0.0000 1809.5998 -7718.0457 304.1523 -9527.6455 -7820.9611 299.4867 -733.1095 -662.7620 31064.4271 -198.2493 -127.9327
ENERGY: 900000 7.7164 5.0722 13.7659 0.0000 -11071.1761 1512.3790 0.0000 0.0000 1783.2971 -7748.9454 299.7314 -9532.2425 -7807.6372 299.9141 440.9649 498.0777 30648.1880 -168.2883 -99.7393
ENERGY: 1200000 4.7091 4.6869 16.7338 0.0000 -11017.0552 1455.5786 0.0000 0.0000 1790.7024 -7744.6444 300.9761 -9535.3468 -7806.7188 299.5337 6.1504 80.1281 30334.7420 -78.9232 -8.1814
ENERGY: 1500000 5.2865 3.9046 13.2299 0.0000 -10994.6023 1405.2612 0.0000 0.0000 1799.4090 -7767.5111 302.4395 -9566.9201 -7798.8142 300.6127 -403.0437 -305.1602 30569.0193 -111.6247 -45.9523
TCL: Running FEP window   3: Lambda1 0.1    Lambda2 0.15000000000000002 [dLambda 0.05000000000000002]
TCL: Setting parameter firsttimestep to 0
TCL: Setting parameter alchLambda to 0.1
Info: NONBONDED TABLE R-SQUARED SPACING: 0.0625
Info: NONBONDED TABLE SIZE: 705 POINTS
TCL: Setting parameter alchLambda2 to 0.15000000000000002
Info: NONBONDED TABLE R-SQUARED SPACING: 0.0625
Info: NONBONDED TABLE SIZE: 705 POINTS
TCL: Running for 1500000 steps
ETITLE: TS BOND ANGLE DIHED IMPRP ELECT VDW BOUNDARY MISC KINETIC TOTAL TEMP POTENTIAL TOTALAVG TEMPAVG PRESSURE GPRESSURE VOLUME PRESSAVG GPRESSAVG
ENERGY: 0 5.2865 3.9046 13.2299 0.0000 -10994.6021 1409.6139 0.0000 0.0000 1798.5413 -7764.0258 302.2936 -9562.5672 -7764.0258 302.2936 -384.4065 -292.4614 30569.0193 -384.4065 -292.4614
ENERGY: 300000 4.2393 10.5619 14.7871 0.0000 -10962.7762 1456.5181 0.0000 0.0000 1780.9841 -7695.6858 299.3427 -9476.6698 -7755.2119 302.9936 149.9904 242.8171 30590.3598 6.4659 84.4597
ENERGY: 600000 4.3434 4.4231 14.1507 0.0000 -11051.7058 1460.5126 0.0000 0.0000 1774.2142 -7794.0617 298.2048 -9568.2759 -7793.4452 299.8465 -461.7110 -340.0741 30916.3172 -240.8551 -160.6186
ENERGY: 900000 5.1414 9.7067 14.4955 0.0000 -11000.2606 1416.5697 0.0000 0.0000 1747.3657 -7806.9816 293.6922 -9554.3473 -7794.5109 299.3658 -449.8291 -368.7865 30672.6358 -148.6367 -70.4053
ENERGY: 1200000 6.6357 4.4377 14.6945 0.0000 -10984.4090 1409.8767 0.0000 0.0000 1728.5940 -7820.1704 290.5371 -9548.7644 -7797.8080 299.0248 -563.0064 -496.1084 30734.0930 -224.5670 -144.9308
ENERGY: 1500000 2.4415 7.2816 13.9596 0.0000 -11008.1598 1440.9079 0.0000 0.0000 1805.1419 -7738.4274 303.4031 -9543.5693 -7788.0015 299.2368 -6.1365 48.3392 30382.5094 -227.5805 -155.3801
TCL: Running FEP window   4: Lambda1 0.15000000000000002 Lambda2 0.2    [dLambda 0.04999999999999999]
TCL: Setting parameter firsttimestep to 0
TCL: Setting parameter alchLambda to 0.15000000000000002
Info: NONBONDED TABLE R-SQUARED SPACING: 0.0625
Info: NONBONDED TABLE SIZE: 705 POINTS
TCL: Setting parameter alchLambda2 to 0.2
Info: NONBONDED TABLE R-SQUARED SPACING: 0.0625
Info: NONBONDED TABLE SIZE: 705 POINTS
TCL: Running for 1500000 steps
ETITLE: TS BOND ANGLE DIHED IMPRP ELECT VDW BOUNDARY MISC KINETIC TOTAL TEMP POTENTIAL TOTALAVG TEMPAVG PRESSURE GPRESSURE VOLUME PRESSAVG GPRESSAVG
ENERGY: 0 2.4414 7.2816 13.9596 0.0000 -11008.1594 1442.6343 0.0000 0.0000 1804.2150 -7737.6275 303.2473 -9541.8425 -7737.6275 303.2473 -22.9927 60.5124 30382.5094 -22.9927 60.5124
ENERGY: 300000 5.0475 6.1535 15.1697 0.0000 -10996.8464 1401.2884 0.0000 0.0000 1779.2059 -7789.9814 299.0438 -9569.1873 -7784.3023 299.9993 -610.2315 -512.5262 31075.8649 130.9230 201.7456
ENERGY: 600000 4.6020 3.7898 14.4447 0.0000 -10950.9893 1383.2485 0.0000 0.0000 1750.1542 -7794.7500 294.1609 -9544.9042 -7769.0373 299.7870 -904.9358 -821.2425 31027.2477 -145.1843 -67.1957
ENERGY: 900000 4.7754 4.2081 15.2813 0.0000 -11071.9212 1452.3000 0.0000 0.0000 1760.7972 -7834.5593 295.9497 -9595.3565 -7777.7300 300.0618 -292.1214 -186.2846 30476.4151 -28.0119 55.1125
ENERGY: 1200000 2.8294 7.3549 13.5542 0.0000 -10983.3800 1403.5069 0.0000 0.0000 1798.0822 -7758.0524 302.2165 -9556.1346 -7774.7661 301.1709 -326.4050 -280.4230 30515.6134 55.7744 133.2264
ENERGY: 1500000 5.1985 6.7314 14.5541 0.0000 -10908.4787 1413.0723 0.0000 0.0000 1732.8706 -7736.0518 291.2559 -9468.9224 -7775.2896 300.3751 -208.6360 -168.3813 30923.4058 23.9964 102.5117
TCL: Running FEP window   5: Lambda1 0.2    Lambda2 0.25   [dLambda 0.04999999999999999]
TCL: Setting parameter firsttimestep to 0
TCL: Setting parameter alchLambda to 0.2
Info: NONBONDED TABLE R-SQUARED SPACING: 0.0625
Info: NONBONDED TABLE SIZE: 705 POINTS
TCL: Setting parameter alchLambda2 to 0.25
Info: NONBONDED TABLE R-SQUARED SPACING: 0.0625
Info: NONBONDED TABLE SIZE: 705 POINTS
TCL: Running for 1500000 steps
ETITLE: TS BOND ANGLE DIHED IMPRP ELECT VDW BOUNDARY MISC KINETIC TOTAL TEMP POTENTIAL TOTALAVG TEMPAVG PRESSURE GPRESSURE VOLUME PRESSAVG GPRESSAVG
ENERGY: 0 5.1985 6.7314 14.5541 0.0000 -10908.4788 1414.3857 0.0000 0.0000 1732.0113 -7735.5978 291.1115 -9467.6091 -7735.5978 291.1115 -242.2086 -161.0629 30923.4058 -242.2086 -161.0629
ENERGY: 300000 5.4439 7.0082 15.5355 0.0000 -11210.2703 1483.8504 0.0000 0.0000 1769.1352 -7929.2971 297.3511 -9698.4323 -7783.6104 296.1416 81.5638 179.7822 30187.9263 -308.5418 -228.8416
ENERGY: 600000 5.9271 13.1156 17.7207 0.0000 -10933.4423 1414.5281 0.0000 0.0000 1754.8812 -7727.2696 294.9554 -9482.1509 -7778.6015 295.9761 -129.8288 -62.7257 30685.9703 -274.1103 -184.1528
ENERGY: 900000 5.8625 4.7756 14.4242 0.0000 -11175.5745 1509.5828 0.0000 0.0000 1800.8449 -7840.0845 302.6808 -9640.9294 -7804.2272 296.3764 247.5477 259.5975 30496.5434 -14.9079 65.3219
ENERGY: 1200000 5.2548 7.2896 14.0272 0.0000 -11160.3683 1528.0791 0.0000 0.0000 1805.4487 -7800.2688 303.4546 -9605.7175 -7789.7494 298.5292 399.7948 479.3776 30589.4402 -21.3122 57.4844
ENERGY: 1500000 4.9449 10.3730 15.9732 0.0000 -10996.2117 1425.8090 0.0000 0.0000 1783.9645 -7755.1472 299.8436 -9539.1116 -7784.8161 298.7544 -50.8869 -46.0066 30757.1561 -18.7851 52.7826
TCL: Running FEP window   6: Lambda1 0.25   Lambda2 0.3    [dLambda 0.04999999999999999]
TCL: Setting parameter firsttimestep to 0
TCL: Setting parameter alchLambda to 0.25
Info: NONBONDED TABLE R-SQUARED SPACING: 0.0625
Info: NONBONDED TABLE SIZE: 705 POINTS
TCL: Setting parameter alchLambda2 to 0.3
Info: NONBONDED TABLE R-SQUARED SPACING: 0.0625
Info: NONBONDED TABLE SIZE: 705 POINTS
TCL: Running for 1500000 steps
ETITLE: TS BOND ANGLE DIHED IMPRP ELECT VDW BOUNDARY MISC KINETIC TOTAL TEMP POTENTIAL TOTALAVG TEMPAVG PRESSURE GPRESSURE VOLUME PRESSAVG GPRESSAVG
ENERGY: 0 4.9449 10.3730 15.9732 0.0000 -10996.2126 1426.3029 0.0000 0.0000 1783.0898 -7755.5288 299.6966 -9538.6186 -7755.5288 299.6966 -115.2619 -39.4073 30757.1561 -115.2619 -39.4073
ENERGY: 300000 5.0796 2.6568 16.9394 0.0000 -11027.8668 1464.5803 0.0000 0.0000 1807.2105 -7731.4001 303.7507 -9538.6106 -7755.5076 302.2309 302.5311 355.4735 30614.9328 244.7274 318.1460
ENERGY: 600000 5.3635 9.5978 15.4567 0.0000 -10907.3666 1328.8738 0.0000 0.0000 1768.8957 -7779.1791 297.3109 -9548.0748 -7776.0670 299.9035 -936.5075 -917.3619 30693.5142 -49.3060 10.4467
ENERGY: 900000 3.6054 5.6749 17.9252 0.0000 -11119.1756 1466.7347 0.0000 0.0000 1768.5500 -7856.6854 297.2528 -9625.2354 -7793.4698 299.7559 -171.0628 -139.2035 30561.8343 -114.9329 -52.1131
ENERGY: 1200000 5.1202 8.8914 16.6164 0.0000 -11004.3081 1421.7937 0.0000 0.0000 1792.8715 -7759.0150 301.3407 -9551.8865 -7784.7405 301.2861 -379.6613 -360.8452 31005.0870 -117.9202 -57.5275
ENERGY: 1500000 3.8370 6.5543 13.8323 0.0000 -10969.6787 1399.2939 0.0000 0.0000 1816.3836 -7729.7776 305.2925 -9546.1612 -7787.6014 300.8047 -493.4150 -384.6797 30872.7699 -167.3170 -102.5295
TCL: Running FEP window   7: Lambda1 0.3    Lambda2 0.35   [dLambda 0.04999999999999999]
TCL: Setting parameter firsttimestep to 0
TCL: Setting parameter alchLambda to 0.3
Info: NONBONDED TABLE R-SQUARED SPACING: 0.0625
Info: NONBONDED TABLE SIZE: 705 POINTS
TCL: Setting parameter alchLambda2 to 0.35
Info: NONBONDED TABLE R-SQUARED SPACING: 0.0625
Info: NONBONDED TABLE SIZE: 705 POINTS
TCL: Running for 1500000 steps
ETITLE: TS BOND ANGLE DIHED IMPRP ELECT VDW BOUNDARY MISC KINETIC TOTAL TEMP POTENTIAL TOTALAVG TEMPAVG PRESSURE GPRESSURE VOLUME PRESSAVG GPRESSAVG
ENERGY: 0 3.8370 6.5543 13.8323 0.0000 -10969.6781 1399.2943 0.0000 0.0000 1815.5053 -7730.6550 305.1449 -9546.1602 -7730.6550 305.1449 -470.3577 -378.7702 30872.7699 -470.3577 -378.7702
ENERGY: 300000 5.6764 7.2381 16.4647 0.0000 -11117.1132 1508.2191 0.0000 0.0000 1798.0230 -7781.4919 302.2065 -9579.5148 -7720.7530 305.1161 403.7483 524.0229 30257.5295 -183.4310 -75.9949
ENERGY: 600000 4.4054 6.8836 14.1540 0.0000 -11110.9857 1477.5659 0.0000 0.0000 1783.1413 -7824.8354 299.7053 -9607.9768 -7743.8125 305.0071 37.2252 133.7713 30441.6414 -145.5858 -48.1988
ENERGY: 900000 5.6973 9.9093 15.5444 0.0000 -10974.9709 1415.9276 0.0000 0.0000 1742.5255 -7785.3668 292.8787 -9527.8923 -7767.3418 302.4924 -202.1325 -186.6724 30703.3823 -9.5244 72.5096
ENERGY: 1200000 3.4407 4.4700 13.9369 0.0000 -10961.5374 1382.7921 0.0000 0.0000 1767.9723 -7788.9255 297.1557 -9556.8978 -7768.5930 300.8635 -676.2706 -632.8678 30900.6019 -142.3907 -59.1079
ENERGY: 1500000 3.1656 5.1482 14.8979 0.0000 -11048.3316 1431.3581 0.0000 0.0000 1789.7506 -7804.0112 300.8161 -9593.7619 -7782.7579 299.5526 -254.3575 -190.8605 30343.7049 -201.3749 -123.0263
TCL: Running FEP window   8: Lambda1 0.35   Lambda2 0.39999999999999997 [dLambda 0.04999999999999999]
TCL: Setting parameter firsttimestep to 0
TCL: Setting parameter alchLambda to 0.35
Info: NONBONDED TABLE R-SQUARED SPACING: 0.0625
Info: NONBONDED TABLE SIZE: 705 POINTS
TCL: Setting parameter alchLambda2 to 0.39999999999999997
Info: NONBONDED TABLE R-SQUARED SPACING: 0.0625
Info: NONBONDED TABLE SIZE: 705 POINTS
TCL: Running for 1500000 steps
ETITLE: TS BOND ANGLE DIHED IMPRP ELECT VDW BOUNDARY MISC KINETIC TOTAL TEMP POTENTIAL TOTALAVG TEMPAVG PRESSURE GPRESSURE VOLUME PRESSAVG GPRESSAVG
ENERGY: 0 3.1656 5.1482 14.8979 0.0000 -11048.3338 1430.8997 0.0000 0.0000 1788.8921 -7805.3303 300.6718 -9594.2225 -7805.3303 300.6718 -267.2919 -190.7390 30343.7049 -267.2919 -190.7390
ENERGY: 300000 3.0081 3.7194 14.8452 0.0000 -11160.2525 1557.2312 0.0000 0.0000 1802.5039 -7778.9447 302.9597 -9581.4486 -7779.7043 300.9142 667.6681 748.4581 30614.5140 187.6238 259.1362
ENERGY: 600000 3.5954 4.0608 14.7094 0.0000 -10927.7721 1414.0515 0.0000 0.0000 1793.4834 -7697.8716 301.4435 -9491.3550 -7794.6685 298.8735 -398.2439 -233.8980 30768.7851 148.7428 220.6057
ENERGY: 900000 5.0141 5.8496 16.9888 0.0000 -11029.7442 1433.5538 0.0000 0.0000 1832.5606 -7735.7773 308.0115 -9568.3379 -7784.0459 299.5601 -14.2174 67.4285 30380.9494 61.4640 129.9665
ENERGY: 1200000 1.6058 6.6424 14.1623 0.0000 -11138.4394 1502.4503 0.0000 0.0000 1804.9500 -7808.6286 303.3708 -9613.5786 -7787.8303 299.1437 -128.2460 -7.9944 30959.7730 -23.4643 48.7570
ENERGY: 1500000 3.8906 7.1660 14.7450 0.0000 -11055.2857 1449.3178 0.0000 0.0000 1813.0905 -7767.0758 304.7390 -9580.1663 -7784.1389 299.6587 17.8116 85.6465 30530.2641 7.8889 82.8408
TCL: Running FEP window   9: Lambda1 0.39999999999999997 Lambda2 0.44999999999999996 [dLambda 0.04999999999999999]
TCL: Setting parameter firsttimestep to 0
TCL: Setting parameter alchLambda to 0.39999999999999997
Info: NONBONDED TABLE R-SQUARED SPACING: 0.0625
Info: NONBONDED TABLE SIZE: 705 POINTS
TCL: Setting parameter alchLambda2 to 0.44999999999999996
Info: NONBONDED TABLE R-SQUARED SPACING: 0.0625
Info: NONBONDED TABLE SIZE: 705 POINTS
TCL: Running for 1500000 steps
ETITLE: TS BOND ANGLE DIHED IMPRP ELECT VDW BOUNDARY MISC KINETIC TOTAL TEMP POTENTIAL TOTALAVG TEMPAVG PRESSURE GPRESSURE VOLUME PRESSAVG GPRESSAVG
ENERGY: 0 3.8906 7.1660 14.7450 0.0000 -11055.2870 1448.7958 0.0000 0.0000 1812.2114 -7768.4783 304.5913 -9580.6896 -7768.4783 304.5913 -7.5224 86.3064 30530.2641 -7.5224 86.3064
ENERGY: 300000 5.1092 5.3281 13.1861 0.0000 -11018.0899 1475.2002 0.0000 0.0000 1846.3753 -7672.8909 310.3334 -9519.2663 -7759.6194 301.0391 275.2307 313.0259 30839.6925 -40.9557 34.2646
ENERGY: 600000 6.2536 6.1964 16.8969 0.0000 -10999.6747 1435.6970 0.0000 0.0000 1854.5509 -7680.0799 311.7076 -9534.6308 -7742.1030 303.3554 64.4312 87.7092 30401.0246 -62.9763 -5.6400
ENERGY: 900000 7.1136 5.2015 15.7336 0.0000 -11046.2683 1435.1008 0.0000 0.0000 1863.0272 -7720.0915 313.1322 -9583.1187 -7750.5237 303.5254 -494.3126 -368.0285 31237.5270 -58.9558 6.8390
ENERGY: 1200000 8.4323 4.4357 13.5459 0.0000 -11060.2699 1511.2482 0.0000 0.0000 1832.1713 -7690.4365 307.9461 -9522.6078 -7755.3262 302.9077 470.2000 530.1657 30938.5692 72.9110 134.3394
ENERGY: 1500000 7.0520 4.3413 13.0920 0.0000 -10933.6378 1320.2713 0.0000 0.0000 1773.3180 -7815.5631 298.0542 -9588.8811 -7762.9774 301.7344 -1253.1363 -1118.8790 30959.5743 42.4767 114.1644
TCL: Running FEP window  10: Lambda1 0.44999999999999996 Lambda2 0.49999999999999994 [dLambda 0.04999999999999999]
TCL: Setting parameter firsttimestep to 0
TCL: Setting parameter alchLambda to 0.44999999999999996
Info: NONBONDED TABLE R-SQUARED SPACING: 0.0625
Info: NONBONDED TABLE SIZE: 705 POINTS
TCL: Setting parameter alchLambda2 to 0.49999999999999994
Info: NONBONDED TABLE R-SQUARED SPACING: 0.0625
Info: NONBONDED TABLE SIZE: 705 POINTS
TCL: Running for 1500000 steps
ETITLE: TS BOND ANGLE DIHED IMPRP ELECT VDW BOUNDARY MISC KINETIC TOTAL TEMP POTENTIAL TOTALAVG TEMPAVG PRESSURE GPRESSURE VOLUME PRESSAVG GPRESSAVG
ENERGY: 0 7.0521 4.3413 13.0920 0.0000 -10933.6379 1320.5032 0.0000 0.0000 1772.3900 -7816.2594 297.8982 -9588.6494 -7816.2594 297.8982 -1206.7793 -1112.7141 30959.5743 -1206.7793 -1112.7141
ENERGY: 300000 8.0934 4.7773 14.7658 0.0000 -11086.3890 1505.2219 0.0000 0.0000 1806.5462 -7746.9844 303.6391 -9553.5306 -7783.6358 300.8988 556.9013 642.1742 30426.5957 -317.0636 -227.7429
ENERGY: 600000 2.9286 4.6431 15.0189 0.0000 -11072.7327 1505.1652 0.0000 0.0000 1786.0236 -7758.9533 300.1897 -9544.9769 -7763.1947 301.7297 32.9967 116.0065 31185.0287 -398.2442 -332.1846
ENERGY: 900000 6.9704 5.3400 13.7714 0.0000 -11093.8823 1483.6465 0.0000 0.0000 1785.0753 -7799.0787 300.0303 -9584.1541 -7766.9873 301.4244 225.6864 279.3626 30708.3894 -201.3225 -150.0740
ENERGY: 1200000 3.9053 3.8864 14.6454 0.0000 -10980.9072 1417.9262 0.0000 0.0000 1780.5693 -7759.9746 299.2730 -9540.5439 -7754.5203 301.7033 -429.4438 -396.3907 31030.6589 -55.2351 -3.8211
ENERGY: 1500000 3.7755 3.9565 16.7453 0.0000 -10981.1952 1369.8611 0.0000 0.0000 1745.7497 -7841.1071 293.4206 -9586.8567 -7764.1429 300.9143 -1007.5032 -1009.4044 31029.1686 -133.0517 -86.8989
TCL: Running FEP window  11: Lambda1 0.49999999999999994 Lambda2 0.5499999999999999 [dLambda 0.04999999999999999]
TCL: Setting parameter firsttimestep to 0
TCL: Setting parameter alchLambda to 0.49999999999999994
Info: NONBONDED TABLE R-SQUARED SPACING: 0.0625
Info: NONBONDED TABLE SIZE: 705 POINTS
TCL: Setting parameter alchLambda2 to 0.5499999999999999
Info: NONBONDED TABLE R-SQUARED SPACING: 0.0625
Info: NONBONDED TABLE SIZE: 705 POINTS
TCL: Running for 1500000 steps
ETITLE: TS BOND ANGLE DIHED IMPRP ELECT VDW BOUNDARY MISC KINETIC TOTAL TEMP POTENTIAL TOTALAVG TEMPAVG PRESSURE GPRESSURE VOLUME PRESSAVG GPRESSAVG
ENERGY: 0 3.7755 3.9565 16.7453 0.0000 -10981.1955 1370.3297 0.0000 0.0000 1744.8898 -7841.4987 293.2760 -9586.3885 -7841.4987 293.2760 -1085.2713 -999.0280 31029.1686 -1085.2713 -999.0280
ENERGY: 300000 4.9132 4.1482 14.4142 0.0000 -10979.4357 1399.3983 0.0000 0.0000 1749.3098 -7807.2519 294.0190 -9556.5618 -7798.5902 299.9098 -617.6870 -525.4794 30903.9208 -257.6835 -192.0338
ENERGY: 600000 3.2133 6.5300 13.2986 0.0000 -11123.5871 1566.5561 0.0000 0.0000 1789.3688 -7744.6203 300.7520 -9533.9892 -7775.5322 301.7913 730.4542 787.3893 30636.9391 -164.2241 -70.9709
ENERGY: 900000 4.1470 7.2512 13.1633 0.0000 -10958.8499 1396.5606 0.0000 0.0000 1776.5740 -7761.1538 298.6014 -9537.7278 -7779.0861 300.9721 -669.2084 -598.4446 31194.1492 -210.6193 -131.0594
ENERGY: 1200000 2.3744 3.1319 14.9649 0.0000 -10921.2294 1331.6817 0.0000 0.0000 1782.7844 -7786.2921 299.6453 -9569.0765 -7778.5143 300.6538 -852.1387 -795.8644 30557.1703 -285.2678 -214.7537
ENERGY: 1500000 4.7283 7.1756 16.1003 0.0000 -11171.6391 1527.7086 0.0000 0.0000 1765.6481 -7850.2782 296.7650 -9615.9263 -7782.1704 300.3742 470.3346 549.5106 30494.5306 -159.5866 -84.8683
TCL: Running FEP window  12: Lambda1 0.5499999999999999 Lambda2 0.6    [dLambda 0.050000000000000044]
TCL: Setting parameter firsttimestep to 0
TCL: Setting parameter alchLambda to 0.5499999999999999
Info: NONBONDED TABLE R-SQUARED SPACING: 0.0625
Info: NONBONDED TABLE SIZE: 705 POINTS
TCL: Setting parameter alchLambda2 to 0.6
Info: NONBONDED TABLE R-SQUARED SPACING: 0.0625
Info: NONBONDED TABLE SIZE: 705 POINTS
TCL: Running for 1500000 steps
ETITLE: TS BOND ANGLE DIHED IMPRP ELECT VDW BOUNDARY MISC KINETIC TOTAL TEMP POTENTIAL TOTALAVG TEMPAVG PRESSURE GPRESSURE VOLUME PRESSAVG GPRESSAVG
ENERGY: 0 4.7283 7.1756 16.1003 0.0000 -11171.4182 1527.3681 0.0000 0.0000 1764.7492 -7851.2968 296.6140 -9616.0460 -7851.2968 296.6140 463.4805 554.5832 30494.5306 463.4805 554.5832
ENERGY: 300000 4.4018 5.4506 15.4551 0.0000 -11037.5293 1486.0403 0.0000 0.0000 1815.1208 -7711.0607 305.0803 -9526.1815 -7793.1728 298.2579 199.6467 285.1273 31142.9362 -73.5877 -3.8165
ENERGY: 600000 2.4340 6.2823 19.2114 0.0000 -11091.0320 1478.0864 0.0000 0.0000 1762.4750 -7822.5429 296.2317 -9585.0179 -7823.9679 297.1722 -222.0406 -135.8526 30973.1593 -141.6508 -85.0990
ENERGY: 900000 14.4666 7.2724 13.5230 0.0000 -11180.2977 1548.3075 0.0000 0.0000 1794.2653 -7802.4630 301.5749 -9596.7283 -7818.4297 298.4602 639.7901 663.8561 30979.2001 -28.8854 19.1031
ENERGY: 1200000 7.3969 8.9403 15.9351 0.0000 -11030.6560 1396.7032 0.0000 0.0000 1752.6851 -7848.9954 294.5863 -9601.6805 -7807.2178 298.4361 -637.4210 -514.8648 30729.2906 -4.1664 50.1189
ENERGY: 1500000 4.3232 9.1471 17.4299 0.0000 -11137.0957 1496.0006 0.0000 0.0000 1814.7093 -7795.4856 305.0111 -9610.1949 -7798.9301 300.0130 -19.4117 34.7349 30695.0617 13.8613 74.9530
TCL: Running FEP window  13: Lambda1 0.6    Lambda2 0.65   [dLambda 0.050000000000000044]
TCL: Setting parameter firsttimestep to 0
TCL: Setting parameter alchLambda to 0.6
Info: NONBONDED TABLE R-SQUARED SPACING: 0.0625
Info: NONBONDED TABLE SIZE: 705 POINTS
TCL: Setting parameter alchLambda2 to 0.65
Info: NONBONDED TABLE R-SQUARED SPACING: 0.0625
Info: NONBONDED TABLE SIZE: 705 POINTS
TCL: Running for 1500000 steps
ETITLE: TS BOND ANGLE DIHED IMPRP ELECT VDW BOUNDARY MISC KINETIC TOTAL TEMP POTENTIAL TOTALAVG TEMPAVG PRESSURE GPRESSURE VOLUME PRESSAVG GPRESSAVG
ENERGY: 0 4.3232 9.1471 17.4299 0.0000 -11137.4545 1495.6464 0.0000 0.0000 1813.8741 -7797.0338 304.8707 -9610.9079 -7797.0338 304.8707 -52.8213 35.6612 30695.0617 -52.8213 35.6612
ENERGY: 300000 2.5239 9.8331 16.5747 0.0000 -10942.3529 1393.6017 0.0000 0.0000 1771.6369 -7748.1825 297.7716 -9519.8195 -7768.6127 301.4009 -460.4581 -419.3818 30950.9196 -93.5078 -29.0619
ENERGY: 600000 4.3136 5.0865 15.4194 0.0000 -11034.6886 1491.4399 0.0000 0.0000 1788.3392 -7730.0900 300.5789 -9518.4292 -7787.4520 300.3624 288.8771 319.3440 30517.4582 -166.0901 -97.5001
ENERGY: 900000 5.9934 6.8663 13.6522 0.0000 -11002.4496 1474.2247 0.0000 0.0000 1828.9920 -7672.7209 307.4117 -9501.7130 -7786.9006 300.3456 362.6211 357.3838 30744.7209 -117.8140 -60.0648
ENERGY: 1200000 2.1846 7.4986 14.3632 0.0000 -11037.8971 1442.8049 0.0000 0.0000 1734.8742 -7836.1716 291.5927 -9571.0458 -7793.4686 299.4705 -491.6963 -381.7111 31109.9860 -119.6976 -55.4033
ENERGY: 1500000 7.3628 6.5377 15.0234 0.0000 -11122.4754 1536.7759 0.0000 0.0000 1803.6064 -7753.1692 303.1450 -9556.7756 -7784.5530 299.9331 667.9970 729.1680 30647.6208 -89.4757 -24.7511
TCL: Running FEP window  14: Lambda1 0.65   Lambda2 0.7000000000000001 [dLambda 0.050000000000000044]
TCL: Setting parameter firsttimestep to 0
TCL: Setting parameter alchLambda to 0.65
Info: NONBONDED TABLE R-SQUARED SPACING: 0.0625
Info: NONBONDED TABLE SIZE: 705 POINTS
TCL: Setting parameter alchLambda2 to 0.7000000000000001
Info: NONBONDED TABLE R-SQUARED SPACING: 0.0625
Info: NONBONDED TABLE SIZE: 705 POINTS
TCL: Running for 1500000 steps
ETITLE: TS BOND ANGLE DIHED IMPRP ELECT VDW BOUNDARY MISC KINETIC TOTAL TEMP POTENTIAL TOTALAVG TEMPAVG PRESSURE GPRESSURE VOLUME PRESSAVG GPRESSAVG
ENERGY: 0 7.3628 6.5377 15.0234 0.0000 -11123.5432 1537.5856 0.0000 0.0000 1802.7288 -7754.3049 302.9975 -9557.0337 -7754.3049 302.9975 664.9091 741.2615 30647.6208 664.9091 741.2615
ENERGY: 300000 7.1282 11.0138 14.4316 0.0000 -11036.8974 1484.3205 0.0000 0.0000 1747.6210 -7772.3822 293.7351 -9520.0033 -7773.4398 300.4205 404.0758 400.9408 30703.2638 122.6472 193.5754
ENERGY: 600000 6.9794 6.2669 16.5707 0.0000 -11094.9262 1486.6874 0.0000 0.0000 1757.7038 -7820.7179 295.4298 -9578.4218 -7799.3934 298.2807 610.3163 684.2000 30054.5562 147.9408 213.7742
ENERGY: 900000 6.9489 5.6379 14.1111 0.0000 -11039.1774 1422.1649 0.0000 0.0000 1789.4965 -7800.8182 300.7734 -9590.3147 -7788.2490 299.9079 -87.2459 -49.9927 30509.8759 170.9819 231.8484
ENERGY: 1200000 3.5784 5.2442 13.2752 0.0000 -10919.9592 1312.2433 0.0000 0.0000 1815.6061 -7770.0119 305.1618 -9585.6180 -7784.0904 299.8515 -1187.9469 -1112.0120 31147.5334 22.0836 76.4205
ENERGY: 1500000 5.9916 5.6170 15.1309 0.0000 -11008.4110 1442.7322 0.0000 0.0000 1777.6818 -7761.2575 298.7876 -9538.9393 -7777.4877 299.9867 124.6146 111.7500 30760.8144 6.1692 61.0438
TCL: Running FEP window  15: Lambda1 0.7000000000000001 Lambda2 0.7500000000000001 [dLambda 0.050000000000000044]
TCL: Setting parameter firsttimestep to 0
TCL: Setting parameter alchLambda to 0.7000000000000001
Info: NONBONDED TABLE R-SQUARED SPACING: 0.0625
Info: NONBONDED TABLE SIZE: 705 POINTS
TCL: Setting parameter alchLambda2 to 0.7500000000000001
Info: NONBONDED TABLE R-SQUARED SPACING: 0.0625
Info: NONBONDED TABLE SIZE: 705 POINTS
TCL: Running for 1500000 steps
ETITLE: TS BOND ANGLE DIHED IMPRP ELECT VDW BOUNDARY MISC KINETIC TOTAL TEMP POTENTIAL TOTALAVG TEMPAVG PRESSURE GPRESSURE VOLUME PRESSAVG GPRESSAVG
ENERGY: 0 5.9916 5.6170 15.1309 0.0000 -11010.1188 1442.8401 0.0000 0.0000 1776.7932 -7763.7460 298.6383 -9540.5392 -7763.7460 298.6383 21.9703 115.6262 30760.8144 21.9703 115.6262
ENERGY: 300000 3.7581 5.3242 15.7340 0.0000 -10911.4206 1380.7492 0.0000 0.0000 1786.5575 -7719.2976 300.2794 -9505.8552 -7717.9370 301.2234 -657.7152 -560.8477 30938.8904 -397.5104 -317.6685
ENERGY: 600000 3.8902 5.3381 12.7448 0.0000 -11065.3829 1451.5545 0.0000 0.0000 1759.7312 -7832.1241 295.7706 -9591.8553 -7779.5188 299.8394 -322.5138 -216.5547 30965.7732 -447.5043 -376.4989
ENERGY: 900000 3.1802 6.3836 17.3683 0.0000 -10811.8549 1302.5451 0.0000 0.0000 1802.9001 -7679.4776 303.0263 -9482.3777 -7767.6474 299.9366 -887.8707 -802.0011 30867.1086 -357.9673 -274.9313
ENERGY: 1200000 3.4798 5.8863 14.8956 0.0000 -11158.7493 1451.2724 0.0000 0.0000 1745.5434 -7937.6718 293.3859 -9683.2152 -7783.7608 298.0668 -613.7435 -456.4628 30712.0499 -292.3617 -198.2095
ENERGY: 1500000 3.9481 7.2448 13.4683 0.0000 -10807.0177 1336.1633 0.0000 0.0000 1794.6709 -7651.5223 301.6431 -9446.1932 -7775.9905 298.4143 -486.3218 -382.8725 30572.2200 -222.4828 -130.7789
TCL: Running FEP window  16: Lambda1 0.7500000000000001 Lambda2 0.8000000000000002 [dLambda 0.050000000000000044]
TCL: Setting parameter firsttimestep to 0
TCL: Setting parameter alchLambda to 0.7500000000000001
Info: NONBONDED TABLE R-SQUARED SPACING: 0.0625
Info: NONBONDED TABLE SIZE: 705 POINTS
TCL: Setting parameter alchLambda2 to 0.8000000000000002
Info: NONBONDED TABLE R-SQUARED SPACING: 0.0625
Info: NONBONDED TABLE SIZE: 705 POINTS
TCL: Running for 1500000 steps
ETITLE: TS BOND ANGLE DIHED IMPRP ELECT VDW BOUNDARY MISC KINETIC TOTAL TEMP POTENTIAL TOTALAVG TEMPAVG PRESSURE GPRESSURE VOLUME PRESSAVG GPRESSAVG
ENERGY: 0 3.9481 7.2448 13.4683 0.0000 -10809.6228 1337.9839 0.0000 0.0000 1793.7897 -7653.1880 301.4950 -9446.9777 -7653.1880 301.4950 -448.9633 -364.4738 30572.2200 -448.9633 -364.4738
ENERGY: 300000 3.7131 3.7794 13.5859 0.0000 -11091.5775 1480.3452 0.0000 0.0000 1812.0910 -7778.0629 304.5710 -9590.1539 -7737.5689 301.3251 129.3501 231.9868 30657.4954 216.8964 299.0821
ENERGY: 600000 4.2383 6.2214 14.2880 0.0000 -11075.0736 1435.5116 0.0000 0.0000 1803.4749 -7811.3395 303.1229 -9614.8143 -7754.1699 303.1245 -173.9902 -173.1232 30626.5769 26.3334 103.3231
ENERGY: 900000 4.1909 2.6651 14.5990 0.0000 -11062.3887 1455.3097 0.0000 0.0000 1814.4360 -7771.1879 304.9652 -9585.6240 -7758.1428 303.0180 22.3302 49.2993 30653.0103 1.0372 69.8631
ENERGY: 1200000 6.2037 6.1302 15.1537 0.0000 -11022.1405 1439.4399 0.0000 0.0000 1796.1690 -7759.0439 301.8949 -9555.2130 -7758.9741 302.9944 -67.7508 -30.0408 30448.2276 22.3493 85.3087
ENERGY: 1500000 7.1678 7.1302 14.4701 0.0000 -11039.4827 1524.3708 0.0000 0.0000 1817.7176 -7668.6262 305.5167 -9486.3438 -7760.6329 302.7692 474.1734 554.4538 31081.1398 25.5024 86.0903
TCL: Running FEP window  17: Lambda1 0.8000000000000002 Lambda2 0.8500000000000002 [dLambda 0.050000000000000044]
TCL: Setting parameter firsttimestep to 0
TCL: Setting parameter alchLambda to 0.8000000000000002
Info: NONBONDED TABLE R-SQUARED SPACING: 0.0625
Info: NONBONDED TABLE SIZE: 705 POINTS
TCL: Setting parameter alchLambda2 to 0.8500000000000002
Info: NONBONDED TABLE R-SQUARED SPACING: 0.0625
Info: NONBONDED TABLE SIZE: 705 POINTS
TCL: Running for 1500000 steps
ETITLE: TS BOND ANGLE DIHED IMPRP ELECT VDW BOUNDARY MISC KINETIC TOTAL TEMP POTENTIAL TOTALAVG TEMPAVG PRESSURE GPRESSURE VOLUME PRESSAVG GPRESSAVG
ENERGY: 0 7.1678 7.1302 14.4701 0.0000 -11042.4353 1525.8830 0.0000 0.0000 1816.8461 -7670.9381 305.3703 -9487.7842 -7670.9381 305.3703 493.9811 573.0989 31081.1398 493.9811 573.0989
ENERGY: 300000 3.5818 5.7749 15.9778 0.0000 -11101.8224 1532.4563 0.0000 0.0000 1780.1894 -7763.8422 299.2091 -9544.0316 -7756.3907 301.9963 723.5771 809.6240 30775.2870 212.8688 296.1031
ENERGY: 600000 4.3466 8.4513 15.6293 0.0000 -11107.4438 1483.0299 0.0000 0.0000 1793.8341 -7802.1525 301.5025 -9595.9866 -7757.6954 301.1747 278.4436 391.9663 30305.3827 185.3112 262.8800
ENERGY: 900000 4.1248 4.0713 18.3280 0.0000 -11039.7471 1435.0566 0.0000 0.0000 1804.5190 -7773.6474 303.2984 -9578.1664 -7751.6323 301.9733 -412.7601 -356.4677 31273.9219 147.0143 220.2697
ENERGY: 1200000 3.9054 4.5045 16.7738 0.0000 -10999.8046 1467.9562 0.0000 0.0000 1758.3412 -7748.3235 295.5369 -9506.6647 -7761.3592 301.5105 189.6246 314.4931 30827.5561 150.9374 222.4610
ENERGY: 1500000 4.5634 9.4193 16.4357 0.0000 -11077.7203 1460.3121 0.0000 0.0000 1827.7951 -7759.1946 307.2105 -9586.9898 -7763.2868 301.8578 146.8593 265.7092 30576.7731 152.6927 224.8873
TCL: Running FEP window  18: Lambda1 0.8500000000000002 Lambda2 0.9000000000000002 [dLambda 0.050000000000000044]
TCL: Setting parameter firsttimestep to 0
TCL: Setting parameter alchLambda to 0.8500000000000002
Info: NONBONDED TABLE R-SQUARED SPACING: 0.0625
Info: NONBONDED TABLE SIZE: 705 POINTS
TCL: Setting parameter alchLambda2 to 0.9000000000000002
Info: NONBONDED TABLE R-SQUARED SPACING: 0.0625
Info: NONBONDED TABLE SIZE: 705 POINTS
TCL: Running for 1500000 steps
ETITLE: TS BOND ANGLE DIHED IMPRP ELECT VDW BOUNDARY MISC KINETIC TOTAL TEMP POTENTIAL TOTALAVG TEMPAVG PRESSURE GPRESSURE VOLUME PRESSAVG GPRESSAVG
ENERGY: 0 4.5634 9.4193 16.4357 0.0000 -11082.4137 1463.8378 0.0000 0.0000 1826.9053 -7761.2522 307.0610 -9588.1575 -7761.2522 307.0610 217.8132 304.8326 30576.7731 217.8132 304.8326
ENERGY: 300000 4.1410 6.2845 14.5144 0.0000 -11253.3918 1603.7213 0.0000 0.0000 1798.9070 -7825.8236 302.3551 -9624.7306 -7797.4112 302.3463 1198.3754 1255.6841 30403.5799 351.0444 415.0639
ENERGY: 600000 2.0761 4.2285 15.4135 0.0000 -11060.3981 1431.4143 0.0000 0.0000 1766.0441 -7841.2216 296.8316 -9607.2656 -7804.5939 300.1724 -381.6734 -325.0032 30856.2415 192.9124 259.6003
ENERGY: 900000 5.0138 5.1166 14.3632 0.0000 -11113.1557 1496.5594 0.0000 0.0000 1740.5809 -7851.5220 292.5518 -9592.1028 -7794.9705 299.8806 120.1854 209.7626 30738.8058 198.0314 260.8454
ENERGY: 1200000 3.7748 2.5384 13.3959 0.0000 -10988.2065 1401.5625 0.0000 0.0000 1767.8656 -7799.0693 297.1378 -9566.9349 -7792.2424 300.2282 -716.2012 -632.2410 31168.2688 70.1521 138.7391
ENERGY: 1500000 4.2289 6.8357 13.6856 0.0000 -11260.5342 1553.5129 0.0000 0.0000 1791.9212 -7890.3499 301.1810 -9682.2711 -7789.5460 301.0039 710.7618 763.2230 30037.1116 76.0284 141.8968
TCL: Running FEP window  19: Lambda1 0.9000000000000002 Lambda2 0.9500000000000003 [dLambda 0.050000000000000044]
TCL: Setting parameter firsttimestep to 0
TCL: Setting parameter alchLambda to 0.9000000000000002
Info: NONBONDED TABLE R-SQUARED SPACING: 0.0625
Info: NONBONDED TABLE SIZE: 705 POINTS
TCL: Setting parameter alchLambda2 to 0.9500000000000003
Info: NONBONDED TABLE R-SQUARED SPACING: 0.0625
Info: NONBONDED TABLE SIZE: 705 POINTS
TCL: Running for 1500000 steps
ETITLE: TS BOND ANGLE DIHED IMPRP ELECT VDW BOUNDARY MISC KINETIC TOTAL TEMP POTENTIAL TOTALAVG TEMPAVG PRESSURE GPRESSURE VOLUME PRESSAVG GPRESSAVG
ENERGY: 0 4.2288 6.8357 13.6856 0.0000 -11266.0303 1556.5298 0.0000 0.0000 1791.0304 -7893.7200 301.0312 -9684.7503 -7893.7200 301.0312 708.9999 799.0246 30037.1116 708.9999 799.0246
ENERGY: 300000 5.3677 4.0296 15.2596 0.0000 -11056.8639 1520.9024 0.0000 0.0000 1783.3888 -7727.9159 299.7469 -9511.3047 -7813.2092 301.5012 755.5617 848.5060 30776.5354 239.0004 306.4999
ENERGY: 600000 8.9267 7.1576 17.5592 0.0000 -11048.3456 1395.7052 0.0000 0.0000 1762.2419 -7856.7549 296.1925 -9618.9969 -7816.8675 299.2005 -841.0339 -799.7488 31152.0992 -101.4253 -24.2646
ENERGY: 900000 3.5539 11.6401 14.8594 0.0000 -10970.5647 1432.5453 0.0000 0.0000 1737.3487 -7770.6174 292.0086 -9507.9661 -7801.4464 298.7865 67.5363 105.7544 30863.9617 -151.2203 -84.2573
ENERGY: 1200000 4.9716 10.1492 18.4066 0.0000 -10954.2887 1355.0229 0.0000 0.0000 1782.9574 -7782.7810 299.6743 -9565.7383 -7796.4706 298.7848 -504.0573 -454.3980 30813.0869 -172.5984 -111.6110
ENERGY: 1500000 2.9515 4.3086 15.3269 0.0000 -11296.5838 1599.1237 0.0000 0.0000 1769.3531 -7905.5200 297.3878 -9674.8731 -7801.6594 299.0170 968.8638 1044.9775 30643.8306 -46.9012 15.5848
TCL: Running FEP window  20: Lambda1 0.9500000000000003 Lambda2 1.0    [dLambda 0.04999999999999971]
TCL: Setting parameter firsttimestep to 0
TCL: Setting parameter alchLambda to 0.9500000000000003
Info: NONBONDED TABLE R-SQUARED SPACING: 0.0625
Info: NONBONDED TABLE SIZE: 705 POINTS
TCL: Setting parameter alchLambda2 to 1.0
Info: NONBONDED TABLE R-SQUARED SPACING: 0.0625
Info: NONBONDED TABLE SIZE: 705 POINTS
TCL: Running for 1500000 steps
ETITLE: TS BOND ANGLE DIHED IMPRP ELECT VDW BOUNDARY MISC KINETIC TOTAL TEMP POTENTIAL TOTALAVG TEMPAVG PRESSURE GPRESSURE VOLUME PRESSAVG GPRESSAVG
ENERGY: 0 2.9515 4.3086 15.3269 0.0000 -11301.5075 1600.6021 0.0000 0.0000 1768.4434 -7909.8750 297.2349 -9678.3184 -7909.8750 297.2349 969.6127 1065.6600 30643.8306 969.6127 1065.6600
ENERGY: 300000 3.0174 5.1313 13.5316 0.0000 -11039.5097 1387.7162 0.0000 0.0000 1740.3553 -7889.7579 292.5139 -9630.1132 -7862.8781 298.1036 -623.5786 -573.6913 30690.2176 289.2129 368.0003
ENERGY: 600000 5.8816 5.1728 17.9836 0.0000 -10895.0764 1383.2112 0.0000 0.0000 1789.6974 -7693.1297 300.8072 -9482.8271 -7803.7838 299.7619 -272.8391 -217.9017 31093.8063 216.1521 291.9603
ENERGY: 900000 3.9588 5.1528 13.5670 0.0000 -11043.0173 1448.3477 0.0000 0.0000 1779.5332 -7792.4577 299.0988 -9571.9909 -7791.7752 300.5478 -240.2515 -163.0446 30858.7850 232.3786 305.1256
ENERGY: 1200000 7.1556 4.0386 15.5480 0.0000 -11007.8371 1454.0610 0.0000 0.0000 1759.8073 -7767.2267 295.7833 -9527.0339 -7799.3762 299.4157 195.4889 234.4881 30754.8155 251.6564 319.6586
ENERGY: 1500000 4.5543 5.0795 13.8328 0.0000 -11024.5297 1410.0041 0.0000 0.0000 1780.5751 -7810.4840 299.2739 -9591.0591 -7793.8980 300.0102 -493.2226 -491.3001 31131.8695 120.3056 189.8257
TCL: Exiting due to exit command.
