Info: SIMULATION PARAMETERS:
Info: TIMESTEP               2
Info: NUMBER OF STEPS        0
Info: STEPS PER CYCLE        10
Info: PERIODIC CELL BASIS 1  34.986 0 0
Info: PERIODIC CELL BASIS 2  0 34.457 0
Info: PERIODIC CELL BASIS 3  0 0 35.723
Info: PERIODIC CELL CENTER   0 0 0
Info: WRAPPING WATERS AROUND PERIODIC BOUNDARIES ON OUTPUT.
Info: WRAPPING ALL CLUSTERS AROUND PERIODIC BOUNDARIES ON OUTPUT.
Info: FIRST LDB TIMESTEP     50
Info: LAST LDB TIMESTEP     -1
Info: HOM BACKGROUND SCALING 1
Info: PME BACKGROUND SCALING 1
Info: MIN ATOMS PER PATCH    40
Info: EMPTY PATCH LOAD       40 ATOMS
Info: INITIAL TEMPERATURE    300
Info: CENTER OF MASS MOVING INITIALLY? NO
Info: DIELECTRIC             1
Info: EXCLUDE                SCALED ONE-FOUR
Info: 1-4 ELECTROSTATICS SCALED BY 0.833333
Info: MODIFIED 1-4 VDW PARAMETERS WILL BE USED
Info: DCD FILENAME           mobley_7732703_equil.dcd
Info: DCD FREQUENCY          100000
Info: DCD FIRST STEP         100000
Info: DCD FILE WILL CONTAIN UNIT CELL DATA
Info: XST FILENAME           mobley_7732703_equil.xst
Info: XST FREQUENCY          100000
Info: NO VELOCITY DCD OUTPUT
Info: NO FORCE DCD OUTPUT
Info: OUTPUT FILENAME        mobley_7732703_equil
Info: BINARY OUTPUT FILES WILL BE USED
Info: RESTART FILENAME       mobley_7732703_equil.restart
Info: RESTART FREQUENCY      100000
Info: BINARY RESTART FILES WILL BE USED
Info: CUTOFF                 9
Info: PAIRLIST DISTANCE      11
Info: PAIRLIST SHRINK RATE   0.01
Info: PAIRLIST GROW RATE     0.01
Info: PAIRLIST TRIGGER       0.3
Info: PAIRLISTS PER CYCLE    2
Info: PAIRLISTS ENABLED
Info: MARGIN                 8
Info: HYDROGEN GROUP CUTOFF  2.5
Info: PATCH DIMENSION        21.5
Info: ENERGY OUTPUT STEPS    100000
Info: ENERGY EVALUATION STEPS    100000
Info: OUTPUT ENERGY PRECISION 4
Info: CROSSTERM ENERGY INCLUDED IN DIHEDRAL
Info: TIMING OUTPUT STEPS    1000000
Info: PRESSURE OUTPUT STEPS  100000
Info: LANGEVIN DYNAMICS ACTIVE
Info: LANGEVIN TEMPERATURE   30
Info: LANGEVIN USING BBK INTEGRATOR
Info: LANGEVIN DAMPING COEFFICIENT IS 1 INVERSE PS
Info: LANGEVIN DYNAMICS APPLIED TO HYDROGENS
Info: LANGEVIN PISTON PRESSURE CONTROL ACTIVE
Info:        TARGET PRESSURE IS 1.01325 BAR
Info:     OSCILLATION PERIOD IS 50 FS
Info:             DECAY TIME IS 25 FS
Info:     PISTON TEMPERATURE IS 300 K
Info:       PRESSURE CONTROL IS GROUP-BASED
Info:    INITIAL STRAIN RATE IS 0 0 0
Info:       CELL FLUCTUATION IS ISOTROPIC
Info: PARTICLE MESH EWALD (PME) ACTIVE
Info: PME TOLERANCE               1e-06
Info: PME EWALD COEFFICIENT       0.348832
Info: PME INTERPOLATION ORDER     4
Info: PME GRID DIMENSIONS         36 36 36
Info: PME MAXIMUM GRID SPACING    1
Info: FULL ELECTROSTATIC EVALUATION FREQUENCY      2
Info: USING VERLET I (r-RESPA) MTS SCHEME.
Info: C1 SPLITTING OF LONG RANGE ELECTROSTATICS
Info: PLACING ATOMS IN PATCHES BY HYDROGEN GROUPS
Info: RIGID BONDS TO HYDROGEN : ALL
Info:         ERROR TOLERANCE : 1e-08
Info:          MAX ITERATIONS : 100
Info: RIGID WATER USING SETTLE ALGORITHM
Info: RANDOM NUMBER SEED     1741915328
Info: USE HYDROGEN BONDS?    NO
Info: Using AMBER format force field!
Info: AMBER PARM FILE        mobley_7732703.prmtop
Info: COORDINATE PDB         mobley_7732703.pdb
Info: Exclusions will be read from PARM file!
Info: SCNB (VDW SCALING)     2
Info: USING ARITHMETIC MEAN TO COMBINE L-J SIGMA PARAMETERS
Info: BINARY COORDINATES     mobley_7732703_min.coor
Info: SUMMARY OF PARAMETERS:
Info: 4 BONDS
Info: 2 ANGLES
Info:   2 HARMONIC
Info:   0 COSINE-BASED
Info: 0 DIHEDRAL
Info: 0 IMPROPER
Info: 0 CROSSTERM
Info: 0 VDW
Info: 15 VDW_PAIRS
Info: 0 NBTHOLE_PAIRS
Info: STRUCTURE SUMMARY:
Info: 2921 ATOMS
Info: 2920 BONDS
Info: 6 ANGLES
Info: 0 DIHEDRALS
Info: 0 IMPROPERS
Info: 0 CROSSTERMS
Info: 2926 EXCLUSIONS
Info: 2916 RIGID BONDS
Info: 5847 DEGREES OF FREEDOM
Info: 977 HYDROGEN GROUPS
Info: 3 ATOMS IN LARGEST HYDROGEN GROUP
Info: 977 MIGRATION GROUPS
Info: 3 ATOMS IN LARGEST MIGRATION GROUP
Info: TOTAL MASS = 17660.5 amu
Info: TOTAL CHARGE = 9.99942e-05 e
Info: MASS DENSITY = 0.680991 g/cm^3
Info: ATOM DENSITY = 0.0678284 atoms/A^3
Info: ADDED 0 IMPLICIT EXCLUSIONS
Info: NONBONDED TABLE R-SQUARED SPACING: 0.0625
Info: NONBONDED TABLE SIZE: 705 POINTS
Info: REMOVING COM VELOCITY 0.0666659 -0.036346 0.184099
TCL: Running for 100000 steps
ETITLE: TS BOND ANGLE DIHED IMPRP ELECT VDW BOUNDARY MISC KINETIC TOTAL TEMP POTENTIAL TOTAL3 TEMPAVG PRESSURE GPRESSURE VOLUME PRESSAVG GPRESSAVG
ENERGY: 0 0.0007 0.1707 0.0000 0.0000 -13542.2037 2385.1357 0.0000 0.0000 1786.6850 -9370.2116 307.5426 -11156.8966 -9369.8492 307.5426 464.9462 502.7603 43064.5267 464.9462 502.7603
ENERGY: 100000 0.1259 0.3345 0.0000 0.0000 -14185.1683 2531.5461 0.0000 0.0000 175.7295 -11477.4323 30.2484 -11653.1618 -11477.0424 30.9453 881.1741 968.4562 28196.8413 2.0184 2.0302
TCL: Running 100000 steps at 60 kelvin.
TCL: Setting parameter langevinTemp to 60
TCL: Running for 100000 steps
ETITLE: TS BOND ANGLE DIHED IMPRP ELECT VDW BOUNDARY MISC KINETIC TOTAL TEMP POTENTIAL TOTAL3 TEMPAVG PRESSURE GPRESSURE VOLUME PRESSAVG GPRESSAVG
ENERGY: 100000 0.1259 0.3345 0.0000 0.0000 -14185.1683 2531.5461 0.0000 0.0000 175.6433 -11477.5185 30.2335 -11653.1618 -11477.1710 30.2335 903.9913 968.4364 28196.8413 903.9913 968.4364
ENERGY: 200000 0.0992 0.4339 0.0000 0.0000 -14109.4531 2503.7049 0.0000 0.0000 352.8037 -11252.4114 60.7282 -11605.2151 -11251.4376 60.1248 780.8192 841.8898 28107.5231 3.0409 3.0874
TCL: Running 100000 steps at 90 kelvin.
TCL: Setting parameter langevinTemp to 90
TCL: Running for 100000 steps
ETITLE: TS BOND ANGLE DIHED IMPRP ELECT VDW BOUNDARY MISC KINETIC TOTAL TEMP POTENTIAL TOTAL3 TEMPAVG PRESSURE GPRESSURE VOLUME PRESSAVG GPRESSAVG
ENERGY: 200000 0.0992 0.4339 0.0000 0.0000 -14109.4531 2503.7049 0.0000 0.0000 352.6243 -11252.5908 60.6973 -11605.2151 -11251.9091 60.6973 782.6066 841.6374 28107.5231 782.6066 841.6374
ENERGY: 300000 0.6477 0.2911 0.0000 0.0000 -14015.9662 2493.7465 0.0000 0.0000 528.1968 -10993.0841 90.9187 -11521.2809 -10992.1359 89.9570 1178.4651 1215.2626 27878.4586 2.8461 2.8146
TCL: Running 100000 steps at 120 kelvin.
TCL: Setting parameter langevinTemp to 120
TCL: Running for 100000 steps
ETITLE: TS BOND ANGLE DIHED IMPRP ELECT VDW BOUNDARY MISC KINETIC TOTAL TEMP POTENTIAL TOTAL3 TEMPAVG PRESSURE GPRESSURE VOLUME PRESSAVG GPRESSAVG
ENERGY: 300000 0.6477 0.2911 0.0000 0.0000 -14015.9662 2493.7465 0.0000 0.0000 527.9342 -10993.3467 90.8735 -11521.2809 -10992.5298 90.8735 1167.4369 1215.1999 27878.4586 1167.4369 1215.1999
ENERGY: 400000 0.4190 0.9349 0.0000 0.0000 -13756.0867 2365.5480 0.0000 0.0000 727.7482 -10661.4365 125.2675 -11389.1847 -10658.7627 119.9389 394.2094 418.2008 28270.1733 4.1448 4.2322
TCL: Running 100000 steps at 150 kelvin.
TCL: Setting parameter langevinTemp to 150
TCL: Running for 100000 steps
ETITLE: TS BOND ANGLE DIHED IMPRP ELECT VDW BOUNDARY MISC KINETIC TOTAL TEMP POTENTIAL TOTAL3 TEMPAVG PRESSURE GPRESSURE VOLUME PRESSAVG GPRESSAVG
ENERGY: 400000 0.4190 0.9349 0.0000 0.0000 -13756.0867 2365.5480 0.0000 0.0000 727.3937 -10661.7910 125.2065 -11389.1847 -10660.4138 125.2065 370.0833 419.3833 28270.1733 370.0833 419.3833
ENERGY: 500000 0.2659 1.1631 0.0000 0.0000 -13632.1886 2402.1474 0.0000 0.0000 857.5742 -10371.0380 147.6145 -11228.6123 -10370.0291 149.8135 1316.5016 1368.8392 28303.0223 3.9102 3.9416
TCL: Running 100000 steps at 180 kelvin.
TCL: Setting parameter langevinTemp to 180
TCL: Running for 100000 steps
ETITLE: TS BOND ANGLE DIHED IMPRP ELECT VDW BOUNDARY MISC KINETIC TOTAL TEMP POTENTIAL TOTAL3 TEMPAVG PRESSURE GPRESSURE VOLUME PRESSAVG GPRESSAVG
ENERGY: 500000 0.2659 1.1631 0.0000 0.0000 -13632.1886 2402.1474 0.0000 0.0000 857.1613 -10371.4509 147.5434 -11228.6123 -10369.7045 147.5434 1330.2385 1367.4560 28303.0223 1330.2385 1367.4560
ENERGY: 600000 1.5872 2.2691 0.0000 0.0000 -12962.6328 2070.1894 0.0000 0.0000 1083.9302 -9804.6569 186.5772 -10888.5871 -9800.9390 180.0588 -181.0450 -114.9323 28500.6362 4.5258 4.5720
TCL: Running 100000 steps at 210 kelvin.
TCL: Setting parameter langevinTemp to 210
TCL: Running for 100000 steps
ETITLE: TS BOND ANGLE DIHED IMPRP ELECT VDW BOUNDARY MISC KINETIC TOTAL TEMP POTENTIAL TOTAL3 TEMPAVG PRESSURE GPRESSURE VOLUME PRESSAVG GPRESSAVG
ENERGY: 600000 1.5872 2.2691 0.0000 0.0000 -12962.6328 2070.1894 0.0000 0.0000 1083.4097 -9805.1774 186.4876 -10888.5871 -9802.8008 186.4876 -193.4116 -115.2409 28500.6362 -193.4116 -115.2409
ENERGY: 700000 0.9379 0.6958 0.0000 0.0000 -12417.1000 1922.6681 0.0000 0.0000 1257.9041 -9234.8940 216.5234 -10492.7981 -9232.8306 209.8526 506.6401 617.7932 28048.7918 3.9382 3.8933
TCL: Running 100000 steps at 240 kelvin.
TCL: Setting parameter langevinTemp to 240
TCL: Running for 100000 steps
ETITLE: TS BOND ANGLE DIHED IMPRP ELECT VDW BOUNDARY MISC KINETIC TOTAL TEMP POTENTIAL TOTAL3 TEMPAVG PRESSURE GPRESSURE VOLUME PRESSAVG GPRESSAVG
ENERGY: 700000 0.9379 0.6958 0.0000 0.0000 -12417.1000 1922.6681 0.0000 0.0000 1257.3139 -9235.4842 216.4218 -10492.7981 -9233.5584 216.4218 537.8671 618.6367 28048.7918 537.8671 618.6367
ENERGY: 800000 0.7378 1.9005 0.0000 0.0000 -11730.5001 1750.0351 0.0000 0.0000 1413.1364 -8564.6902 243.2436 -9977.8266 -8561.9393 240.3150 664.4831 750.3217 28443.2471 4.4364 4.4101
TCL: Running 100000 steps at 270 kelvin.
TCL: Setting parameter langevinTemp to 270
TCL: Running for 100000 steps
ETITLE: TS BOND ANGLE DIHED IMPRP ELECT VDW BOUNDARY MISC KINETIC TOTAL TEMP POTENTIAL TOTAL3 TEMPAVG PRESSURE GPRESSURE VOLUME PRESSAVG GPRESSAVG
ENERGY: 800000 0.7378 1.9005 0.0000 0.0000 -11730.5001 1750.0351 0.0000 0.0000 1412.4195 -8565.4070 243.1202 -9977.8266 -8563.2222 243.1202 670.9928 749.9684 28443.2471 670.9928 749.9684
ENERGY: 900000 1.0782 1.2685 0.0000 0.0000 -11174.5828 1587.5559 0.0000 0.0000 1555.2390 -8029.4411 267.7037 -9584.6802 -8025.8296 270.0157 490.0972 581.7753 29090.3504 3.4982 3.2712
TCL: Running 1000000 steps at 300 kelvin.
TCL: Setting parameter langevinTemp to 300
TCL: Running for 1000000 steps
ETITLE: TS BOND ANGLE DIHED IMPRP ELECT VDW BOUNDARY MISC KINETIC TOTAL TEMP POTENTIAL TOTAL3 TEMPAVG PRESSURE GPRESSURE VOLUME PRESSAVG GPRESSAVG
ENERGY: 900000 1.0782 1.2685 0.0000 0.0000 -11174.5828 1587.5559 0.0000 0.0000 1554.4734 -8030.2068 267.5719 -9584.6802 -8027.7036 267.5719 496.1686 583.4457 29090.3504 496.1686 583.4457
ENERGY: 1100000 0.4198 0.5547 0.0000 0.0000 -10746.9241 1524.1343 0.0000 0.0000 1715.1469 -7506.6683 295.2287 -9221.8152 -7503.5496 300.0033 545.8672 737.7668 30031.5438 3.4583 3.4667
ENERGY: 1300000 1.2426 3.1310 0.0000 0.0000 -10693.3597 1446.1295 0.0000 0.0000 1681.7300 -7561.1267 289.4767 -9242.8567 -7560.9550 300.9380 -152.0359 -58.3657 30236.3564 2.4242 2.2477
ENERGY: 1500000 0.3475 0.5014 0.0000 0.0000 -10546.2331 1380.4773 0.0000 0.0000 1737.0187 -7427.8881 298.9935 -9164.9069 -7421.9837 300.0285 -376.9617 -208.9482 30103.4622 3.7940 3.8808
ENERGY: 1700000 0.3663 0.8094 0.0000 0.0000 -10516.6967 1332.2174 0.0000 0.0000 1752.1146 -7431.1891 301.5920 -9183.3036 -7427.9720 300.8151 -749.4324 -695.8611 30222.5807 3.3934 3.1869
ENERGY: 1900000 2.0867 0.9852 0.0000 0.0000 -10630.3442 1480.1266 0.0000 0.0000 1748.3090 -7398.8367 300.9369 -9147.1457 -7398.6415 299.8896 208.1800 387.7423 30669.4972 2.3191 2.2027
TCL: Exiting due to exit command.
