Info: SIMULATION PARAMETERS:
Info: TIMESTEP               2
Info: NUMBER OF STEPS        0
Info: STEPS PER CYCLE        10
Info: PERIODIC CELL BASIS 1  41.545 0 0
Info: PERIODIC CELL BASIS 2  0 40.343 0
Info: PERIODIC CELL BASIS 3  0 0 44.319
Info: PERIODIC CELL CENTER   0 0 0
Info: WRAPPING WATERS AROUND PERIODIC BOUNDARIES ON OUTPUT.
Info: WRAPPING ALL CLUSTERS AROUND PERIODIC BOUNDARIES ON OUTPUT.
Info: FIRST LDB TIMESTEP     50
Info: LAST LDB TIMESTEP     -1
Info: HOM BACKGROUND SCALING 1
Info: PME BACKGROUND SCALING 1
Info: MIN ATOMS PER PATCH    40
Info: EMPTY PATCH LOAD       40 ATOMS
Info: INITIAL TEMPERATURE    300
Info: CENTER OF MASS MOVING INITIALLY? NO
Info: DIELECTRIC             1
Info: EXCLUDE                SCALED ONE-FOUR
Info: 1-4 ELECTROSTATICS SCALED BY 0.833333
Info: MODIFIED 1-4 VDW PARAMETERS WILL BE USED
Info: DCD FILENAME           mobley_2972345_min.dcd
Info: DCD FREQUENCY          5000
Info: DCD FIRST STEP         5000
Info: DCD FILE WILL CONTAIN UNIT CELL DATA
Info: XST FILENAME           mobley_2972345_min.xst
Info: XST FREQUENCY          5000
Info: NO VELOCITY DCD OUTPUT
Info: NO FORCE DCD OUTPUT
Info: OUTPUT FILENAME        mobley_2972345_min
Info: BINARY OUTPUT FILES WILL BE USED
Info: RESTART FILENAME       mobley_2972345_min.restart
Info: RESTART FREQUENCY      5000
Info: BINARY RESTART FILES WILL BE USED
Info: CUTOFF                 9
Info: PAIRLIST DISTANCE      11
Info: PAIRLIST SHRINK RATE   0.01
Info: PAIRLIST GROW RATE     0.01
Info: PAIRLIST TRIGGER       0.3
Info: PAIRLISTS PER CYCLE    2
Info: PAIRLISTS ENABLED
Info: MARGIN                 8
Info: HYDROGEN GROUP CUTOFF  2.5
Info: PATCH DIMENSION        21.5
Info: ENERGY OUTPUT STEPS    5000
Info: ENERGY EVALUATION STEPS    5000
Info: OUTPUT ENERGY PRECISION 4
Info: CROSSTERM ENERGY INCLUDED IN DIHEDRAL
Info: TIMING OUTPUT STEPS    50000
Info: PRESSURE OUTPUT STEPS  5000
Info: LANGEVIN DYNAMICS ACTIVE
Info: LANGEVIN TEMPERATURE   300
Info: LANGEVIN USING BBK INTEGRATOR
Info: LANGEVIN DAMPING COEFFICIENT IS 1 INVERSE PS
Info: LANGEVIN DYNAMICS APPLIED TO HYDROGENS
Info: LANGEVIN PISTON PRESSURE CONTROL ACTIVE
Info:        TARGET PRESSURE IS 1.01325 BAR
Info:     OSCILLATION PERIOD IS 50 FS
Info:             DECAY TIME IS 25 FS
Info:     PISTON TEMPERATURE IS 300 K
Info:       PRESSURE CONTROL IS GROUP-BASED
Info:    INITIAL STRAIN RATE IS 0 0 0
Info:       CELL FLUCTUATION IS ISOTROPIC
Info: PARTICLE MESH EWALD (PME) ACTIVE
Info: PME TOLERANCE               1e-06
Info: PME EWALD COEFFICIENT       0.348832
Info: PME INTERPOLATION ORDER     4
Info: PME GRID DIMENSIONS         44 44 48
Info: PME MAXIMUM GRID SPACING    1
Info: FULL ELECTROSTATIC EVALUATION FREQUENCY      2
Info: USING VERLET I (r-RESPA) MTS SCHEME.
Info: C1 SPLITTING OF LONG RANGE ELECTROSTATICS
Info: PLACING ATOMS IN PATCHES BY HYDROGEN GROUPS
Info: RIGID BONDS TO HYDROGEN : ALL
Info:         ERROR TOLERANCE : 1e-08
Info:          MAX ITERATIONS : 100
Info: RIGID WATER USING SETTLE ALGORITHM
Info: RANDOM NUMBER SEED     1741324293
Info: USE HYDROGEN BONDS?    NO
Info: Using AMBER format force field!
Info: AMBER PARM FILE        mobley_2972345.prmtop
Info: COORDINATE PDB         mobley_2972345.pdb
Info: Exclusions will be read from PARM file!
Info: SCNB (VDW SCALING)     2
Info: USING ARITHMETIC MEAN TO COMBINE L-J SIGMA PARAMETERS
Info: SUMMARY OF PARAMETERS:
Info: 6 BONDS
Info: 6 ANGLES
Info:   6 HARMONIC
Info:   0 COSINE-BASED
Info: 4 DIHEDRAL
Info: 0 IMPROPER
Info: 0 CROSSTERM
Info: 0 VDW
Info: 21 VDW_PAIRS
Info: 0 NBTHOLE_PAIRS
Info: STRUCTURE SUMMARY:
Info: 5489 ATOMS
Info: 5491 BONDS
Info: 48 ANGLES
Info: 84 DIHEDRALS
Info: 0 IMPROPERS
Info: 0 CROSSTERMS
Info: 5602 EXCLUSIONS
Info: 5475 RIGID BONDS
Info: 10992 DEGREES OF FREEDOM
Info: 1835 HYDROGEN GROUPS
Info: 3 ATOMS IN LARGEST HYDROGEN GROUP
Info: 1835 MIGRATION GROUPS
Info: 3 ATOMS IN LARGEST MIGRATION GROUP
Info: TOTAL MASS = 32987.4 amu
Info: TOTAL CHARGE = -0.000200078 e
Info: MASS DENSITY = 0.737446 g/cm^3
Info: ATOM DENSITY = 0.0738952 atoms/A^3
Info: ADDED 0 IMPLICIT EXCLUSIONS
Info: NONBONDED TABLE R-SQUARED SPACING: 0.0625
Info: NONBONDED TABLE SIZE: 705 POINTS
Info: REMOVING COM VELOCITY -0.118164 0.126861 0.0218507
TCL: Minimizing for 2000 steps
ETITLE: TS BOND ANGLE DIHED IMPRP ELECT VDW BOUNDARY MISC KINETIC TOTAL TEMP POTENTIAL TOTAL3 TEMPAVG PRESSURE GPRESSURE VOLUME PRESSAVG GPRESSAVG
ENERGY: 0 0.1515 1.0627 0.1073 0.0000 -17224.7393 1912.2594 0.0000 0.0000 0.0000 -15311.1583 0.0000 -15311.1583 -15311.1583 0.0000 11301.7141 -16172.2411 74280.8571 11301.7141 -16172.2411
ENERGY: 400 3.8304 2.4850 0.4763 0.0000 -22959.2989 3233.7332 0.0000 0.0000 0.0000 -19718.7741 0.0000 -19718.7741 -19718.7741 0.0000 15689.3433 10749.1571 74280.8571 15689.3433 10749.1571
ENERGY: 800 20.6508 11.2912 0.4815 0.0000 -24233.1397 3868.4580 0.0000 0.0000 0.0000 -20332.2582 0.0000 -20332.2582 -20332.2582 0.0000 18375.9780 12952.4662 74280.8571 18375.9780 12952.4662
ENERGY: 1200 0.8361 0.6260 0.0769 0.0000 -24714.0282 4108.7171 0.0000 0.0000 0.0000 -20603.7721 0.0000 -20603.7721 -20603.7721 0.0000 19411.9551 13869.9785 74280.8571 19411.9551 13869.9785
ENERGY: 1600 0.7130 0.6243 0.0857 0.0000 -25114.3160 4336.0250 0.0000 0.0000 0.0000 -20776.8679 0.0000 -20776.8679 -20776.8679 0.0000 20468.5923 15026.5344 74280.8571 20468.5923 15026.5344
ENERGY: 2000 0.5893 0.6543 0.0778 0.0000 -25244.2599 4377.3164 0.0000 0.0000 0.0000 -20865.6221 0.0000 -20865.6221 -20865.6221 0.0000 20679.0170 15117.5656 74280.8571 20679.0170 15117.5656
TCL: Exiting due to exit command.
Info: NAMD 3.0.1 for Linux-x86_64-multicore
Info: Please visit http://www.ks.uiuc.edu/Research/namd/
Info: for updates, documentation, and support information.
Info: Please cite Phillips et al., J. Chem. Phys. 153:044130 (2020) doi:10.1063/5.0014475
Info: in all publications reporting results obtained with NAMD.
Info: Based on Charm++/Converse 80000 for multicore-linux-x86_64-gcc
Info: Built Mon Oct 14 11:11:06 CDT 2024 by dhardy on athine.ks.uiuc.edu
Info: 1 NAMD  3.0.1  Linux-x86_64-multicore  16    k010  z5358697
Info: Running on 16 processors, 1 nodes, 1 physical nodes.
Info: CPU topology information available.
Info: Charm++/Converse parallel runtime startup completed at 0.00948273 s
Info: 1043.45 MB of memory in use based on /proc/self/stat
Info: Configuration file is mobley_2972345_equil.namd
Info: Working in the current directory /srv/scratch/z5358697/prod_prep_3/2972345
TCL: Running 25000 steps at 30 kelvin.
TCL: Suspending until startup complete.
Info: SIMULATION PARAMETERS:
Info: TIMESTEP               2
Info: NUMBER OF STEPS        0
Info: STEPS PER CYCLE        10
Info: PERIODIC CELL BASIS 1  41.545 0 0
Info: PERIODIC CELL BASIS 2  0 40.343 0
Info: PERIODIC CELL BASIS 3  0 0 44.319
Info: PERIODIC CELL CENTER   0 0 0
Info: WRAPPING WATERS AROUND PERIODIC BOUNDARIES ON OUTPUT.
Info: WRAPPING ALL CLUSTERS AROUND PERIODIC BOUNDARIES ON OUTPUT.
Info: FIRST LDB TIMESTEP     50
Info: LAST LDB TIMESTEP     -1
Info: HOM BACKGROUND SCALING 1
Info: PME BACKGROUND SCALING 1
Info: MIN ATOMS PER PATCH    40
Info: EMPTY PATCH LOAD       40 ATOMS
Info: INITIAL TEMPERATURE    300
Info: CENTER OF MASS MOVING INITIALLY? NO
Info: DIELECTRIC             1
Info: EXCLUDE                SCALED ONE-FOUR
Info: 1-4 ELECTROSTATICS SCALED BY 0.833333
Info: MODIFIED 1-4 VDW PARAMETERS WILL BE USED
Info: DCD FILENAME           mobley_2972345_equil.dcd
Info: DCD FREQUENCY          5000
Info: DCD FIRST STEP         5000
Info: DCD FILE WILL CONTAIN UNIT CELL DATA
Info: XST FILENAME           mobley_2972345_equil.xst
Info: XST FREQUENCY          5000
Info: NO VELOCITY DCD OUTPUT
Info: NO FORCE DCD OUTPUT
Info: OUTPUT FILENAME        mobley_2972345_equil
Info: BINARY OUTPUT FILES WILL BE USED
Info: RESTART FILENAME       mobley_2972345_equil.restart
Info: RESTART FREQUENCY      5000
Info: BINARY RESTART FILES WILL BE USED
Info: CUTOFF                 9
Info: PAIRLIST DISTANCE      11
Info: PAIRLIST SHRINK RATE   0.01
Info: PAIRLIST GROW RATE     0.01
Info: PAIRLIST TRIGGER       0.3
Info: PAIRLISTS PER CYCLE    2
Info: PAIRLISTS ENABLED
Info: MARGIN                 8
Info: HYDROGEN GROUP CUTOFF  2.5
Info: PATCH DIMENSION        21.5
Info: ENERGY OUTPUT STEPS    5000
Info: ENERGY EVALUATION STEPS    5000
Info: OUTPUT ENERGY PRECISION 4
Info: CROSSTERM ENERGY INCLUDED IN DIHEDRAL
Info: TIMING OUTPUT STEPS    50000
Info: PRESSURE OUTPUT STEPS  5000
Info: LANGEVIN DYNAMICS ACTIVE
Info: LANGEVIN TEMPERATURE   30
Info: LANGEVIN USING BBK INTEGRATOR
Info: LANGEVIN DAMPING COEFFICIENT IS 1 INVERSE PS
Info: LANGEVIN DYNAMICS APPLIED TO HYDROGENS
Info: LANGEVIN PISTON PRESSURE CONTROL ACTIVE
Info:        TARGET PRESSURE IS 1.01325 BAR
Info:     OSCILLATION PERIOD IS 50 FS
Info:             DECAY TIME IS 25 FS
Info:     PISTON TEMPERATURE IS 300 K
Info:       PRESSURE CONTROL IS GROUP-BASED
Info:    INITIAL STRAIN RATE IS 0 0 0
Info:       CELL FLUCTUATION IS ISOTROPIC
Info: PARTICLE MESH EWALD (PME) ACTIVE
Info: PME TOLERANCE               1e-06
Info: PME EWALD COEFFICIENT       0.348832
Info: PME INTERPOLATION ORDER     4
Info: PME GRID DIMENSIONS         44 44 48
Info: PME MAXIMUM GRID SPACING    1
Info: FULL ELECTROSTATIC EVALUATION FREQUENCY      2
Info: USING VERLET I (r-RESPA) MTS SCHEME.
Info: C1 SPLITTING OF LONG RANGE ELECTROSTATICS
Info: PLACING ATOMS IN PATCHES BY HYDROGEN GROUPS
Info: RIGID BONDS TO HYDROGEN : ALL
Info:         ERROR TOLERANCE : 1e-08
Info:          MAX ITERATIONS : 100
Info: RIGID WATER USING SETTLE ALGORITHM
Info: RANDOM NUMBER SEED     1741324315
Info: USE HYDROGEN BONDS?    NO
Info: Using AMBER format force field!
Info: AMBER PARM FILE        mobley_2972345.prmtop
Info: COORDINATE PDB         mobley_2972345.pdb
Info: Exclusions will be read from PARM file!
Info: SCNB (VDW SCALING)     2
Info: USING ARITHMETIC MEAN TO COMBINE L-J SIGMA PARAMETERS
Info: BINARY COORDINATES     mobley_2972345_min.coor
Info: SUMMARY OF PARAMETERS:
Info: 6 BONDS
Info: 6 ANGLES
Info:   6 HARMONIC
Info:   0 COSINE-BASED
Info: 4 DIHEDRAL
Info: 0 IMPROPER
Info: 0 CROSSTERM
Info: 0 VDW
Info: 21 VDW_PAIRS
Info: 0 NBTHOLE_PAIRS
Info: STRUCTURE SUMMARY:
Info: 5489 ATOMS
Info: 5491 BONDS
Info: 48 ANGLES
Info: 84 DIHEDRALS
Info: 0 IMPROPERS
Info: 0 CROSSTERMS
Info: 5602 EXCLUSIONS
Info: 5475 RIGID BONDS
Info: 10992 DEGREES OF FREEDOM
Info: 1835 HYDROGEN GROUPS
Info: 3 ATOMS IN LARGEST HYDROGEN GROUP
Info: 1835 MIGRATION GROUPS
Info: 3 ATOMS IN LARGEST MIGRATION GROUP
Info: TOTAL MASS = 32987.4 amu
Info: TOTAL CHARGE = -0.000200078 e
Info: MASS DENSITY = 0.737446 g/cm^3
Info: ATOM DENSITY = 0.0738952 atoms/A^3
Info: ADDED 0 IMPLICIT EXCLUSIONS
Info: NONBONDED TABLE R-SQUARED SPACING: 0.0625
Info: NONBONDED TABLE SIZE: 705 POINTS
Info: REMOVING COM VELOCITY -0.0259501 0.016374 -0.0287264
TCL: Running for 25000 steps
ETITLE: TS BOND ANGLE DIHED IMPRP ELECT VDW BOUNDARY MISC KINETIC TOTAL TEMP POTENTIAL TOTAL3 TEMPAVG PRESSURE GPRESSURE VOLUME PRESSAVG GPRESSAVG
ENERGY: 0 0.5893 0.6543 0.0778 0.0000 -25244.2599 4377.3164 0.0000 0.0000 3213.3779 -17652.2442 294.2222 -20865.6221 -17651.6133 294.2222 322.4263 368.4483 74280.8571 322.4263 368.4483
ENERGY: 5000 1.1101 1.8150 0.5052 0.0000 -26395.6666 4664.8442 0.0000 0.0000 335.4988 -21391.8934 30.7188 -21727.3921 -21391.0155 47.1229 486.2749 552.8054 53180.1570 3.4963 3.3895
ENERGY: 10000 0.7573 1.1634 0.5352 0.0000 -26145.5888 4403.0243 0.0000 0.0000 319.1201 -21420.9884 29.2192 -21740.1086 -21420.0809 30.2518 -739.7518 -672.1727 53649.0811 4.9790 4.9750
ENERGY: 15000 1.3302 1.7236 0.6543 0.0000 -26192.3801 4439.5055 0.0000 0.0000 322.2621 -21426.9044 29.5069 -21749.1665 -21426.1339 30.0260 -616.7660 -557.4839 53636.7255 2.2936 2.4973
ENERGY: 20000 0.5110 1.4237 0.6627 0.0000 -26292.4768 4519.0180 0.0000 0.0000 327.3475 -21443.5139 29.9725 -21770.8613 -21442.4414 30.0295 -146.5751 -94.1678 53181.1477 0.9342 0.9827
ENERGY: 25000 0.4929 1.0696 0.6122 0.0000 -26536.0083 4742.4116 0.0000 0.0000 331.2420 -21460.1800 30.3291 -21791.4220 -21459.4111 30.0134 915.2795 966.0333 52757.9098 2.1749 2.1805
TCL: Running 25000 steps at 60 kelvin.
TCL: Setting parameter langevinTemp to 60
TCL: Running for 25000 steps
ETITLE: TS BOND ANGLE DIHED IMPRP ELECT VDW BOUNDARY MISC KINETIC TOTAL TEMP POTENTIAL TOTAL3 TEMPAVG PRESSURE GPRESSURE VOLUME PRESSAVG GPRESSAVG
ENERGY: 25000 0.4929 1.0696 0.6122 0.0000 -26536.0083 4742.4116 0.0000 0.0000 331.0820 -21460.3400 30.3144 -21791.4220 -21459.7203 30.3144 908.4303 966.0744 52757.9098 908.4303 966.0744
ENERGY: 30000 1.8112 1.9701 1.2061 0.0000 -25807.4215 4338.0263 0.0000 0.0000 651.7147 -20812.6932 59.6721 -21464.4079 -20810.7038 57.1442 -424.4512 -374.3726 53486.1258 2.4399 2.1910
ENERGY: 35000 1.0169 1.9958 1.3757 0.0000 -25948.8942 4432.2130 0.0000 0.0000 660.5993 -20851.6934 60.4856 -21512.2927 -20850.1997 60.1674 1.4816 60.7033 53351.3416 1.2116 1.6419
ENERGY: 40000 1.6800 2.4190 1.1209 0.0000 -26082.5769 4531.9115 0.0000 0.0000 672.6913 -20872.7542 61.5927 -21545.4455 -20871.3231 60.5354 272.7064 353.0981 53083.4500 2.0705 2.1029
ENERGY: 45000 1.7575 2.1214 0.4078 0.0000 -25918.2657 4333.5595 0.0000 0.0000 665.0920 -20915.3274 60.8969 -21580.4195 -20913.3395 60.5542 -689.3680 -609.5451 53168.3726 3.4286 3.6375
ENERGY: 50000 1.5775 1.5410 1.1651 0.0000 -26081.9806 4480.4226 0.0000 0.0000 653.8848 -20943.3895 59.8708 -21597.2744 -20941.4454 60.1905 -33.8037 25.5131 52957.3118 2.8568 2.9697
TCL: Running 25000 steps at 90 kelvin.
TCL: Setting parameter langevinTemp to 90
TCL: Running for 25000 steps
ETITLE: TS BOND ANGLE DIHED IMPRP ELECT VDW BOUNDARY MISC KINETIC TOTAL TEMP POTENTIAL TOTAL3 TEMPAVG PRESSURE GPRESSURE VOLUME PRESSAVG GPRESSAVG
ENERGY: 50000 1.5775 1.5410 1.1651 0.0000 -26081.9806 4480.4226 0.0000 0.0000 653.5555 -20943.7188 59.8406 -21597.2744 -20942.4343 59.8406 -31.1459 25.8201 52957.3118 -31.1459 25.8201
ENERGY: 55000 2.3578 3.1403 1.9913 0.0000 -25530.6671 4235.3696 0.0000 0.0000 990.4422 -20297.3659 90.6865 -21287.8081 -20295.0550 86.9004 -629.3551 -569.5638 53683.3178 1.0072 0.6834
ENERGY: 60000 1.1678 1.9994 2.0675 0.0000 -25635.6420 4285.9041 0.0000 0.0000 974.0613 -20370.4419 89.1867 -21344.5032 -20367.9961 90.1167 -393.8776 -298.6049 53426.6004 1.9285 2.0029
ENERGY: 65000 1.2169 2.3011 1.4904 0.0000 -25872.6157 4492.3624 0.0000 0.0000 978.0169 -20397.2280 89.5488 -21375.2448 -20394.7197 89.7524 554.4203 622.1866 53202.5156 2.5063 2.6057
ENERGY: 70000 1.1225 2.6934 1.6940 0.0000 -25572.1878 4137.9181 0.0000 0.0000 972.9965 -20455.7633 89.0892 -21428.7598 -20453.0241 90.0964 -1209.2801 -1146.9328 53668.9374 2.3313 2.3332
ENERGY: 75000 1.8517 2.5417 0.7528 0.0000 -25759.8249 4352.7558 0.0000 0.0000 973.3525 -20428.5704 89.1218 -21401.9229 -20425.2801 90.3073 -183.2689 -109.8361 53329.5635 1.5557 1.8779
TCL: Running 25000 steps at 120 kelvin.
TCL: Setting parameter langevinTemp to 120
TCL: Running for 25000 steps
ETITLE: TS BOND ANGLE DIHED IMPRP ELECT VDW BOUNDARY MISC KINETIC TOTAL TEMP POTENTIAL TOTAL3 TEMPAVG PRESSURE GPRESSURE VOLUME PRESSAVG GPRESSAVG
ENERGY: 75000 1.8517 2.5417 0.7528 0.0000 -25759.8249 4352.7558 0.0000 0.0000 972.8594 -20429.0634 89.0766 -21401.9229 -20426.6739 89.0766 -176.8063 -109.6769 53329.5635 -176.8063 -109.6769
ENERGY: 80000 3.7016 3.0954 1.4312 0.0000 -25380.4340 4308.2143 0.0000 0.0000 1318.6057 -19745.3858 120.7337 -21063.9915 -19741.7979 116.6621 276.0580 350.1656 53547.3095 10.1818 9.8491
ENERGY: 85000 3.6487 4.6863 2.4429 0.0000 -25221.0276 4134.9898 0.0000 0.0000 1288.3403 -19786.9198 117.9626 -21075.2601 -19783.5661 119.4416 -606.9870 -567.9234 53795.1868 6.5859 6.6303
ENERGY: 90000 1.4423 4.1087 3.1117 0.0000 -25318.6036 4220.7274 0.0000 0.0000 1312.3092 -19776.9044 120.1572 -21089.2136 -19773.5786 120.2672 -151.5139 -113.8935 53674.0711 -2.0936 -2.1140
ENERGY: 95000 2.7536 4.0893 1.0567 0.0000 -25309.2184 4179.2958 0.0000 0.0000 1330.5404 -19791.4824 121.8265 -21122.0229 -19788.6919 120.5841 -506.3246 -438.2125 53958.0095 3.6410 3.8107
ENERGY: 100000 2.7994 3.1279 1.1476 0.0000 -25522.8199 4346.8313 0.0000 0.0000 1323.8891 -19845.0247 121.2175 -21168.9137 -19842.1291 119.9529 206.1419 272.5803 53606.2820 1.0952 0.8815
TCL: Running 25000 steps at 150 kelvin.
TCL: Setting parameter langevinTemp to 150
TCL: Running for 25000 steps
ETITLE: TS BOND ANGLE DIHED IMPRP ELECT VDW BOUNDARY MISC KINETIC TOTAL TEMP POTENTIAL TOTAL3 TEMPAVG PRESSURE GPRESSURE VOLUME PRESSAVG GPRESSAVG
ENERGY: 100000 2.7994 3.1279 1.1476 0.0000 -25522.8199 4346.8313 0.0000 0.0000 1323.2419 -19845.6718 121.1582 -21168.9137 -19842.9404 121.1582 207.1713 272.0615 53606.2820 207.1713 272.0615
ENERGY: 105000 1.7311 5.7795 1.9319 0.0000 -24957.1263 4181.4323 0.0000 0.0000 1626.6492 -19139.6023 148.9387 -20766.2515 -19135.9595 146.0477 209.0476 287.5552 54232.8864 5.6468 5.2411
ENERGY: 110000 4.4977 3.5667 1.6077 0.0000 -24904.6343 4101.5680 0.0000 0.0000 1640.8614 -19152.5328 150.2400 -20793.3942 -19148.2214 149.7778 -249.0044 -174.1285 54179.4492 2.2466 2.4815
ENERGY: 115000 2.5890 3.8708 2.4978 0.0000 -24911.6880 4107.6665 0.0000 0.0000 1654.1849 -19140.8790 151.4599 -20795.0639 -19136.8564 151.6484 -255.0863 -148.1558 54105.5225 6.6374 6.7953
ENERGY: 120000 2.2065 5.4927 3.2952 0.0000 -25014.3319 4171.4857 0.0000 0.0000 1621.7782 -19210.0735 148.4927 -20831.8517 -19208.1624 149.8328 -1.2314 56.1583 54061.2884 4.4807 4.4932
ENERGY: 125000 3.1814 3.0004 3.2377 0.0000 -24906.4750 4093.0173 0.0000 0.0000 1669.9211 -19134.1171 152.9007 -20804.0382 -19128.0714 150.3259 -258.9179 -209.2484 54052.2175 2.5405 2.1203
TCL: Running 50000 steps at 180 kelvin.
TCL: Setting parameter langevinTemp to 180
TCL: Running for 50000 steps
ETITLE: TS BOND ANGLE DIHED IMPRP ELECT VDW BOUNDARY MISC KINETIC TOTAL TEMP POTENTIAL TOTAL3 TEMPAVG PRESSURE GPRESSURE VOLUME PRESSAVG GPRESSAVG
ENERGY: 125000 3.1814 3.0004 3.2377 0.0000 -24906.4750 4093.0173 0.0000 0.0000 1669.0962 -19134.9420 152.8252 -20804.0382 -19131.2475 152.8252 -264.4430 -208.4051 54052.2175 -264.4430 -208.4051
ENERGY: 135000 4.6560 6.7246 4.6628 0.0000 -24448.5038 4119.7178 0.0000 0.0000 1999.6315 -18313.1111 183.0896 -20312.7426 -18309.4347 179.9240 1001.7069 1066.7277 53459.6197 5.6686 5.5053
ENERGY: 145000 4.3915 4.3087 5.2762 0.0000 -24232.7704 3861.7895 0.0000 0.0000 1972.2870 -18384.7175 180.5859 -20357.0045 -18379.4188 180.5273 -268.5373 -164.3989 53561.4828 0.8413 0.8113
ENERGY: 155000 3.8106 4.8316 4.0122 0.0000 -24339.7455 3938.5261 0.0000 0.0000 1976.4735 -18412.0914 180.9692 -20388.5649 -18406.3178 179.4380 249.9135 265.9771 53342.1107 0.2262 0.7234
ENERGY: 165000 3.8478 4.4235 4.2223 0.0000 -24258.3883 3866.1523 0.0000 0.0000 2005.6002 -18374.1421 183.6361 -20379.7423 -18367.5909 181.1279 -93.6685 -47.9622 53552.5348 0.6125 1.1835
ENERGY: 175000 2.4583 8.4943 5.3104 0.0000 -24382.1029 3972.5796 0.0000 0.0000 1983.2900 -18409.9703 181.5933 -20393.2603 -18405.7862 180.7955 223.4051 295.6153 53245.4686 5.0304 5.1055
TCL: Running 50000 steps at 210 kelvin.
TCL: Setting parameter langevinTemp to 210
TCL: Running for 50000 steps
ETITLE: TS BOND ANGLE DIHED IMPRP ELECT VDW BOUNDARY MISC KINETIC TOTAL TEMP POTENTIAL TOTAL3 TEMPAVG PRESSURE GPRESSURE VOLUME PRESSAVG GPRESSAVG
ENERGY: 175000 2.4583 8.4943 5.3104 0.0000 -24382.1029 3972.5796 0.0000 0.0000 1982.2830 -18410.9773 181.5011 -20393.2603 -18407.4258 181.5011 238.7149 295.1286 53245.4686 238.7149 295.1286
ENERGY: 185000 4.7868 6.5070 3.0808 0.0000 -23324.9014 3683.1273 0.0000 0.0000 2305.1632 -17322.2362 211.0646 -19627.3994 -17315.4537 209.7370 418.9994 484.0472 53957.7745 3.8000 3.3559
ENERGY: 195000 2.3077 10.2841 3.6040 0.0000 -23172.1642 3600.4282 0.0000 0.0000 2264.6474 -17290.8928 207.3549 -19555.5402 -17285.9838 210.3851 318.0906 378.0683 53540.2578 2.2559 2.5503
ENERGY: 205000 2.8061 4.6317 4.4149 0.0000 -23067.4436 3506.9002 0.0000 0.0000 2299.4900 -17249.2007 210.5451 -19548.6907 -17244.4849 210.3916 -34.4156 61.9354 53458.3226 4.7004 5.0608
ENERGY: 215000 4.9758 10.7255 4.6126 0.0000 -22957.9691 3433.5906 0.0000 0.0000 2253.8849 -17250.1797 206.3694 -19504.0646 -17244.5074 209.9661 -475.9711 -428.7425 53607.8743 4.4200 4.4540
ENERGY: 225000 4.6396 5.1173 4.4249 0.0000 -22942.5373 3370.4812 0.0000 0.0000 2279.1443 -17278.7300 208.6822 -19557.8743 -17272.8985 210.3165 -874.5209 -816.5259 54108.1901 2.1028 1.9148
TCL: Running 50000 steps at 240 kelvin.
TCL: Setting parameter langevinTemp to 240
TCL: Running for 50000 steps
ETITLE: TS BOND ANGLE DIHED IMPRP ELECT VDW BOUNDARY MISC KINETIC TOTAL TEMP POTENTIAL TOTAL3 TEMPAVG PRESSURE GPRESSURE VOLUME PRESSAVG GPRESSAVG
ENERGY: 225000 4.6396 5.1173 4.4249 0.0000 -22942.5373 3370.4812 0.0000 0.0000 2277.9997 -17279.8746 208.5774 -19557.8743 -17275.5368 208.5774 -894.0575 -816.0745 54108.1901 -894.0575 -816.0745
ENERGY: 235000 2.6934 6.6930 3.2031 0.0000 -21887.4038 3104.8192 0.0000 0.0000 2597.8236 -16172.1714 237.8610 -18769.9951 -16169.2156 240.3709 -291.3443 -193.0572 53698.8223 -4.7565 -4.8097
ENERGY: 245000 3.0600 6.4062 4.8580 0.0000 -21857.1819 3148.6739 0.0000 0.0000 2683.7530 -16010.4308 245.7289 -18694.1838 -16006.2439 242.0051 -202.2010 -88.4505 54268.5713 2.0570 1.7018
ENERGY: 255000 2.8830 7.3939 2.9179 0.0000 -21745.7589 3106.4811 0.0000 0.0000 2619.5986 -16006.4844 239.8548 -18626.0831 -16000.4036 240.3691 -253.6588 -208.2225 54573.4179 0.8269 0.6497
ENERGY: 265000 6.8025 8.6383 3.2726 0.0000 -22001.0754 3310.8805 0.0000 0.0000 2660.4004 -16011.0811 243.5907 -18671.4815 -16006.7598 240.1057 572.7310 693.6342 53608.9442 3.1998 2.8288
ENERGY: 275000 2.4667 7.1211 4.8675 0.0000 -21634.0368 3017.3500 0.0000 0.0000 2641.4617 -15960.7699 241.8566 -18602.2315 -15954.4741 240.2593 -723.4781 -610.1916 54667.0219 1.4862 1.7269
TCL: Running 50000 steps at 270 kelvin.
TCL: Setting parameter langevinTemp to 270
TCL: Running for 50000 steps
ETITLE: TS BOND ANGLE DIHED IMPRP ELECT VDW BOUNDARY MISC KINETIC TOTAL TEMP POTENTIAL TOTAL3 TEMPAVG PRESSURE GPRESSURE VOLUME PRESSAVG GPRESSAVG
ENERGY: 275000 2.4667 7.1211 4.8675 0.0000 -21634.0368 3017.3500 0.0000 0.0000 2640.1381 -15962.0934 241.7354 -18602.2315 -15957.3069 241.7354 -692.8319 -609.2254 54667.0219 -692.8319 -609.2254
ENERGY: 285000 2.7384 9.3047 5.3207 0.0000 -20741.7520 2828.7184 0.0000 0.0000 3012.2973 -14883.3725 275.8109 -17895.6698 -14872.6054 270.2661 -474.0865 -376.9793 56035.1683 -0.6631 -0.4631
ENERGY: 295000 2.8633 7.9789 6.4191 0.0000 -21086.0048 3043.8955 0.0000 0.0000 2996.0902 -15028.7578 274.3270 -18024.8481 -15023.7869 269.7051 659.3341 746.0700 54535.9962 0.6949 0.3499
ENERGY: 305000 4.9849 5.9593 5.0328 0.0000 -20851.1021 2865.1787 0.0000 0.0000 2948.5285 -15021.4180 269.9722 -17969.9465 -15016.0171 268.5300 -225.5754 -153.5943 55279.6303 0.0145 -0.5166
ENERGY: 315000 2.5917 10.8298 5.0176 0.0000 -20831.6525 2881.5174 0.0000 0.0000 2891.3271 -15040.3689 264.7347 -17931.6960 -15034.2705 268.7137 -153.0498 -115.6984 55074.9811 3.1670 3.0303
ENERGY: 325000 2.5733 5.5268 4.9660 0.0000 -20965.5826 2959.7520 0.0000 0.0000 3011.9295 -14980.8351 275.7773 -17992.7646 -14974.9325 272.5011 231.4451 349.4047 54995.1378 6.1832 6.3798
TCL: Running 1000000 steps at 300 kelvin.
TCL: Setting parameter langevinTemp to 300
TCL: Running for 1000000 steps
ETITLE: TS BOND ANGLE DIHED IMPRP ELECT VDW BOUNDARY MISC KINETIC TOTAL TEMP POTENTIAL TOTAL3 TEMPAVG PRESSURE GPRESSURE VOLUME PRESSAVG GPRESSAVG
ENERGY: 325000 2.5733 5.5268 4.9660 0.0000 -20965.5826 2959.7520 0.0000 0.0000 3010.4700 -14982.2947 275.6436 -17992.7646 -14977.5924 275.6436 268.0344 349.5609 54995.1378 268.0344 349.5609
ENERGY: 525000 3.5047 6.7106 5.9153 0.0000 -19759.5813 2548.5089 0.0000 0.0000 3282.4572 -13912.4846 300.5472 -17194.9418 -13907.4787 299.4507 -464.0486 -376.7241 56496.3779 3.0504 3.0883
ENERGY: 725000 3.9597 9.0788 4.3788 0.0000 -19858.2969 2604.0315 0.0000 0.0000 3254.8135 -13982.0346 298.0161 -17236.8481 -13974.1386 298.6301 -251.7630 -192.4078 56381.2572 -2.5896 -2.8347
ENERGY: 925000 9.3033 5.7059 4.0328 0.0000 -19781.1693 2532.7595 0.0000 0.0000 3231.6980 -13997.6697 295.8996 -17229.3677 -13992.2880 300.0115 -713.9904 -632.2586 56692.2227 1.4750 1.4570
ENERGY: 1125000 4.9298 13.0066 5.4629 0.0000 -19955.9227 2693.5707 0.0000 0.0000 3262.0170 -13976.9358 298.6757 -17238.9528 -13971.6483 297.9579 -201.0292 -95.9234 57220.5842 5.4191 5.4912
ENERGY: 1325000 4.9367 7.2376 4.2294 0.0000 -19840.7869 2602.7571 0.0000 0.0000 3316.2875 -13905.3387 303.6448 -17221.6262 -13897.3790 300.3857 -494.8167 -383.5096 57056.5225 1.8388 1.3258
TCL: Exiting due to exit command.
