Info: SIMULATION PARAMETERS:
Info: TIMESTEP               2
Info: NUMBER OF STEPS        0
Info: STEPS PER CYCLE        10
Info: PERIODIC CELL BASIS 1  30.3503 0 0
Info: PERIODIC CELL BASIS 2  0 31.4185 0
Info: PERIODIC CELL BASIS 3  0 0 32.1177
Info: PERIODIC CELL CENTER   0 0 0
Info: WRAPPING WATERS AROUND PERIODIC BOUNDARIES ON OUTPUT.
Info: WRAPPING ALL CLUSTERS AROUND PERIODIC BOUNDARIES ON OUTPUT.
Info: FIRST LDB TIMESTEP     50
Info: LAST LDB TIMESTEP     -1
Info: HOM BACKGROUND SCALING 1
Info: PME BACKGROUND SCALING 1
Info: MIN ATOMS PER PATCH    40
Info: EMPTY PATCH LOAD       40 ATOMS
Info: VELOCITY FILE          mobley_337666_equil.vel
Info: CENTER OF MASS MOVING INITIALLY? NO
Info: DIELECTRIC             1
Info: EXCLUDE                SCALED ONE-FOUR
Info: 1-4 ELECTROSTATICS SCALED BY 0.833333
Info: MODIFIED 1-4 VDW PARAMETERS WILL BE USED
Info: DCD FILENAME           mobley_337666_prod.dcd
Info: DCD FREQUENCY          100000
Info: DCD FIRST STEP         100000
Info: DCD FILE WILL CONTAIN UNIT CELL DATA
Info: XST FILENAME           mobley_337666_prod.xst
Info: XST FREQUENCY          100000
Info: NO VELOCITY DCD OUTPUT
Info: NO FORCE DCD OUTPUT
Info: OUTPUT FILENAME        mobley_337666_prod
Info: BINARY OUTPUT FILES WILL BE USED
Info: RESTART FILENAME       mobley_337666_prod.restart
Info: RESTART FREQUENCY      100000
Info: BINARY RESTART FILES WILL BE USED
Info: CUTOFF                 9
Info: PAIRLIST DISTANCE      11
Info: PAIRLIST SHRINK RATE   0.01
Info: PAIRLIST GROW RATE     0.01
Info: PAIRLIST TRIGGER       0.3
Info: PAIRLISTS PER CYCLE    2
Info: PAIRLISTS ENABLED
Info: MARGIN                 2
Info: HYDROGEN GROUP CUTOFF  2.5
Info: PATCH DIMENSION        15.5
Info: ENERGY OUTPUT STEPS    100000
Info: ENERGY EVALUATION STEPS    100000
Info: OUTPUT ENERGY PRECISION 4
Info: CROSSTERM ENERGY INCLUDED IN DIHEDRAL
Info: TIMING OUTPUT STEPS    1000000
Info: PRESSURE OUTPUT STEPS  100000
Info: ALCHEMICAL FEP ON
Info: FEP CURRENT LAMBDA VALUE     1
Info: FEP COMPARISON LAMBDA VALUE  0.95
Info: FEP INTRA-ALCHEMICAL NON-BONDED INTERACTIONS WILL BE RETAINED
Info: FEP INTRA-ALCHEMICAL BONDED INTERACTIONS WILL BE RETAINED
Info: FEP VDW SHIFTING COEFFICIENT 5
Info: FEP ELEC. ACTIVE FOR ANNIHILATED PARTICLES BETWEEN LAMBDA = 0 AND LAMBDA = 0.5
Info: FEP ELEC. ACTIVE FOR EXNIHILATED PARTICLES BETWEEN LAMBDA = 0.5 AND LAMBDA = 1
Info: FEP VDW ACTIVE FOR ANNIHILATED PARTICLES BETWEEN LAMBDA = 0 AND LAMBDA = 1
Info: FEP VDW ACTIVE FOR EXNIHILATED PARTICLES BETWEEN LAMBDA = 0 AND LAMBDA = 1
Info: FEP BOND ACTIVE FOR ANNIHILATED PARTICLES BETWEEN LAMBDA = 1 AND LAMBDA = 1
Info: FEP BOND ACTIVE FOR EXNIHILATED PARTICLES BETWEEN LAMBDA = 0 AND LAMBDA = 0
Info: LANGEVIN DYNAMICS ACTIVE
Info: LANGEVIN TEMPERATURE   300
Info: LANGEVIN USING BBK INTEGRATOR
Info: LANGEVIN DAMPING COEFFICIENT IS 1 INVERSE PS
Info: LANGEVIN DYNAMICS APPLIED TO HYDROGENS
Info: LANGEVIN PISTON PRESSURE CONTROL ACTIVE
Info:        TARGET PRESSURE IS 1.01325 BAR
Info:     OSCILLATION PERIOD IS 50 FS
Info:             DECAY TIME IS 25 FS
Info:     PISTON TEMPERATURE IS 300 K
Info:       PRESSURE CONTROL IS GROUP-BASED
Info:    INITIAL STRAIN RATE IS 5.50887e-06 5.50887e-06 5.50887e-06
Info:       CELL FLUCTUATION IS ISOTROPIC
Info: PARTICLE MESH EWALD (PME) ACTIVE
Info: PME TOLERANCE               1e-06
Info: PME EWALD COEFFICIENT       0.348832
Info: PME INTERPOLATION ORDER     4
Info: PME GRID DIMENSIONS         32 32 36
Info: PME MAXIMUM GRID SPACING    1
Info: PME CALCULATION WILL BE PERFORMED ON GPU
Info: FULL ELECTROSTATIC EVALUATION FREQUENCY      2
Info: USING VERLET I (r-RESPA) MTS SCHEME.
Info: C1 SPLITTING OF LONG RANGE ELECTROSTATICS
Info: PLACING ATOMS IN PATCHES BY HYDROGEN GROUPS
Info: RIGID BONDS TO HYDROGEN : ALL
Info:         ERROR TOLERANCE : 1e-08
Info:          MAX ITERATIONS : 100
Info: RIGID WATER USING SETTLE ALGORITHM
Info: RANDOM NUMBER SEED     1742170496
Info: USE HYDROGEN BONDS?    NO
Info: Using AMBER format force field!
Info: AMBER PARM FILE        mobley_337666.prmtop
Info: COORDINATE PDB         mobley_337666.pdb
Info: Exclusions will be read from PARM file!
Info: SCNB (VDW SCALING)     2
Info: USING ARITHMETIC MEAN TO COMBINE L-J SIGMA PARAMETERS
Info: BINARY COORDINATES     mobley_337666_equil.coor
Info: SUMMARY OF PARAMETERS:
Info: 10 BONDS
Info: 14 ANGLES
Info:   14 HARMONIC
Info:   0 COSINE-BASED
Info: 7 DIHEDRAL
Info: 0 IMPROPER
Info: 0 CROSSTERM
Info: 0 VDW
Info: 36 VDW_PAIRS
Info: 0 NBTHOLE_PAIRS
Info: To read alchdata from file: mobley_337666.pdb
Info: To read alchflag data from column: 5
Info: STRUCTURE SUMMARY:
Info: 2958 ATOMS
Info: 2958 BONDS
Info: 18 ANGLES
Info: 31 DIHEDRALS
Info: 0 IMPROPERS
Info: 0 CROSSTERMS
Info: 2997 EXCLUSIONS
Info: 2949 RIGID BONDS
Info: ALCH: 0 ATOMS TO DISAPPEAR IN FINAL STATE
Info: ALCH: 12 ATOMS TO APPEAR IN FINAL STATE
Info: 5925 DEGREES OF FREEDOM
Info: 991 HYDROGEN GROUPS
Info: 3 ATOMS IN LARGEST HYDROGEN GROUP
Info: 991 MIGRATION GROUPS
Info: 3 ATOMS IN LARGEST MIGRATION GROUP
Info: TOTAL MASS = 17821.8 amu
Info: TOTAL CHARGE = -0.000200007 e
Info: MASS DENSITY = 0.966315 g/cm^3
Info: ATOM DENSITY = 0.0965843 atoms/A^3
Info: ADDED 0 IMPLICIT EXCLUSIONS
Info: NONBONDED TABLE R-SQUARED SPACING: 0.0625
Info: NONBONDED TABLE SIZE: 705 POINTS
Info: REMOVING COM VELOCITY -0.064356 0.254466 0.0261199
Info: Use 3D box decompostion in PME FFT.
Info: Updated CUDA force table with 4096 elements.
Info: Updated CUDA LJ table with 8 x 8 elements.
Info: Found 14 unique exclusion lists needing 24 bytes
TCL: Running for 1500000 steps
ETITLE: TS BOND ANGLE DIHED IMPRP ELECT VDW BOUNDARY MISC KINETIC TOTAL TEMP POTENTIAL TOTALAVG TEMPAVG PRESSURE GPRESSURE VOLUME PRESSAVG GPRESSAVG
ENERGY: 0 3.0779 3.3965 14.1569 0.0000 -10840.1112 1402.2935 0.0000 0.0000 1767.8546 -7649.3318 300.2953 -9417.1864 -7649.3318 300.2953 -432.9705 -352.2500 30626.1091 -432.9705 -352.2500
ENERGY: 300000 2.4601 4.4180 14.4288 0.0000 -10919.6528 1453.2711 0.0000 0.0000 1740.0249 -7705.0499 295.5680 -9445.0748 -7647.0400 299.5619 -17.4581 47.0567 30286.5758 -290.0816 -225.9100
ENERGY: 600000 2.5203 2.3365 16.5669 0.0000 -11042.6087 1506.8425 0.0000 0.0000 1801.6425 -7712.7000 306.0347 -9514.3425 -7656.9928 300.0983 468.2365 558.5404 29736.6605 -149.5342 -84.5559
ENERGY: 900000 4.5578 5.5639 14.1018 0.0000 -10853.8379 1472.3536 0.0000 0.0000 1746.8251 -7610.4357 296.7232 -9357.2608 -7644.4231 300.8968 501.9103 593.6803 30522.9140 -150.3810 -88.9970
ENERGY: 1200000 5.8913 6.6694 13.0542 0.0000 -10844.7621 1448.9446 0.0000 0.0000 1792.7668 -7577.4357 304.5270 -9370.2025 -7640.7071 301.4597 -25.0729 27.1621 30898.4623 -152.3992 -84.6076
ENERGY: 1500000 7.2792 5.1240 13.9087 0.0000 -10853.9177 1445.0277 0.0000 0.0000 1780.1406 -7602.4375 302.3823 -9382.5782 -7642.7712 301.5264 -12.0409 -5.5481 30895.8411 -189.7670 -123.8596
TCL: Running FEP window   2: Lambda1 0.95   Lambda2 0.8999999999999999 [dLambda -0.050000000000000044]
TCL: Setting parameter firsttimestep to 0
TCL: Setting parameter alchLambda to 0.95
Info: NONBONDED TABLE R-SQUARED SPACING: 0.0625
Info: NONBONDED TABLE SIZE: 705 POINTS
TCL: Setting parameter alchLambda2 to 0.8999999999999999
Info: NONBONDED TABLE R-SQUARED SPACING: 0.0625
Info: NONBONDED TABLE SIZE: 705 POINTS
TCL: Running for 1500000 steps
ETITLE: TS BOND ANGLE DIHED IMPRP ELECT VDW BOUNDARY MISC KINETIC TOTAL TEMP POTENTIAL TOTALAVG TEMPAVG PRESSURE GPRESSURE VOLUME PRESSAVG GPRESSAVG
ENERGY: 0 7.2792 5.1240 13.9087 0.0000 -10850.2020 1443.4179 0.0000 0.0000 1779.2386 -7601.2336 302.2291 -9380.4722 -7601.2336 302.2291 -104.7304 -30.1319 30895.8411 -104.7304 -30.1319
ENERGY: 300000 2.4119 1.7956 14.2696 0.0000 -10923.5750 1410.3791 0.0000 0.0000 1819.4049 -7675.3141 309.0519 -9494.7190 -7673.4521 299.4845 -337.5844 -306.0875 30534.8619 -304.3073 -228.3272
ENERGY: 600000 2.9061 3.8637 14.6723 0.0000 -10832.0512 1464.9660 0.0000 0.0000 1826.4221 -7519.2210 310.2439 -9345.6431 -7634.1972 302.7167 276.9348 291.7520 30643.7206 -292.2063 -230.3434
ENERGY: 900000 6.4121 6.5885 14.8284 0.0000 -10855.7560 1418.2578 0.0000 0.0000 1748.9214 -7660.7477 297.0793 -9409.6692 -7625.5989 303.0036 -108.2233 -52.0269 30589.4047 -265.6582 -204.2118
ENERGY: 1200000 5.8682 4.2740 13.4264 0.0000 -10787.2099 1320.5322 0.0000 0.0000 1684.4122 -7758.6970 286.1214 -9443.1092 -7642.6275 301.4455 -1285.0792 -1151.0685 30519.8935 -266.1915 -199.1200
ENERGY: 1500000 0.9642 1.6092 16.9512 0.0000 -10695.5363 1299.1261 0.0000 0.0000 1750.0621 -7626.8236 297.2730 -9376.8857 -7641.9725 300.5485 -1018.4583 -994.9010 30622.0287 -255.5958 -191.3588
TCL: Running FEP window   3: Lambda1 0.8999999999999999 Lambda2 0.8499999999999999 [dLambda -0.050000000000000044]
TCL: Setting parameter firsttimestep to 0
TCL: Setting parameter alchLambda to 0.8999999999999999
Info: NONBONDED TABLE R-SQUARED SPACING: 0.0625
Info: NONBONDED TABLE SIZE: 705 POINTS
TCL: Setting parameter alchLambda2 to 0.8499999999999999
Info: NONBONDED TABLE R-SQUARED SPACING: 0.0625
Info: NONBONDED TABLE SIZE: 705 POINTS
TCL: Running for 1500000 steps
ETITLE: TS BOND ANGLE DIHED IMPRP ELECT VDW BOUNDARY MISC KINETIC TOTAL TEMP POTENTIAL TOTALAVG TEMPAVG PRESSURE GPRESSURE VOLUME PRESSAVG GPRESSAVG
ENERGY: 0 0.9642 1.6092 16.9512 0.0000 -10691.4062 1297.6611 0.0000 0.0000 1749.2025 -7625.0181 297.1270 -9374.2206 -7625.0181 297.1270 -1099.6418 -1013.9237 30622.0287 -1099.6418 -1013.9237
ENERGY: 300000 2.8218 1.5774 13.5008 0.0000 -11079.6993 1558.3172 0.0000 0.0000 1729.9642 -7773.5179 293.8591 -9503.4821 -7667.6779 298.2322 513.3243 619.9506 30453.3130 -109.6820 -26.2514
ENERGY: 600000 3.4226 2.5841 14.6285 0.0000 -10770.4761 1379.1911 0.0000 0.0000 1840.7338 -7529.9160 312.6749 -9370.6498 -7648.3906 299.5959 -515.6805 -475.6494 30847.4604 -12.5927 50.9046
ENERGY: 900000 1.9306 6.6089 15.2194 0.0000 -10691.7223 1341.1899 0.0000 0.0000 1838.7027 -7488.0709 312.3299 -9326.7735 -7625.9491 301.1153 -747.3272 -689.4572 31142.9634 -58.4003 8.4424
ENERGY: 1200000 5.7964 3.9461 14.6306 0.0000 -10862.2213 1389.6328 0.0000 0.0000 1811.3529 -7636.8625 307.6841 -9448.2154 -7639.8354 300.7729 -311.2929 -287.1980 30242.9791 -7.6100 44.0596
ENERGY: 1500000 3.8605 5.5673 18.4761 0.0000 -10748.8817 1360.5632 0.0000 0.0000 1746.6290 -7613.7857 296.6899 -9360.4147 -7634.7241 300.3908 -716.2163 -669.9868 30780.2028 3.3628 47.3089
TCL: Running FEP window   4: Lambda1 0.8499999999999999 Lambda2 0.7999999999999998 [dLambda -0.050000000000000044]
TCL: Setting parameter firsttimestep to 0
TCL: Setting parameter alchLambda to 0.8499999999999999
Info: NONBONDED TABLE R-SQUARED SPACING: 0.0625
Info: NONBONDED TABLE SIZE: 705 POINTS
TCL: Setting parameter alchLambda2 to 0.7999999999999998
Info: NONBONDED TABLE R-SQUARED SPACING: 0.0625
Info: NONBONDED TABLE SIZE: 705 POINTS
TCL: Running for 1500000 steps
ETITLE: TS BOND ANGLE DIHED IMPRP ELECT VDW BOUNDARY MISC KINETIC TOTAL TEMP POTENTIAL TOTALAVG TEMPAVG PRESSURE GPRESSURE VOLUME PRESSAVG GPRESSAVG
ENERGY: 0 3.8605 5.5673 18.4761 0.0000 -10743.6593 1358.8646 0.0000 0.0000 1745.7590 -7611.1319 296.5421 -9356.8909 -7611.1319 296.5421 -759.8450 -688.3727 30780.2028 -759.8450 -688.3727
ENERGY: 300000 2.7941 4.8259 18.8094 0.0000 -10824.2997 1424.3262 0.0000 0.0000 1790.8971 -7582.6468 304.2094 -9373.5440 -7624.4029 299.7970 -261.0466 -219.6648 30732.5826 -162.0537 -101.9407
ENERGY: 600000 3.2194 7.3128 16.1062 0.0000 -10768.3924 1389.8417 0.0000 0.0000 1823.7678 -7528.1445 309.7930 -9351.9123 -7603.9159 301.5299 -335.6146 -303.4178 30887.3048 -203.7948 -142.0981
ENERGY: 900000 2.8537 4.5998 14.9901 0.0000 -10922.3632 1454.0221 0.0000 0.0000 1771.9267 -7673.9707 300.9870 -9445.8974 -7616.8304 301.4812 -139.6864 -12.9908 30283.4701 -277.0859 -211.4611
ENERGY: 1200000 5.2119 7.0369 17.0376 0.0000 -10850.5902 1347.7168 0.0000 0.0000 1765.2685 -7708.3184 299.8560 -9473.5869 -7636.4924 300.9686 -914.8950 -826.1318 30222.6213 -378.1199 -310.3048
ENERGY: 1500000 0.9951 5.1504 13.2545 0.0000 -10940.9076 1485.1803 0.0000 0.0000 1839.6418 -7596.6855 312.4894 -9436.3273 -7640.0030 301.1347 138.6688 221.3626 30383.0100 -252.6101 -174.8868
TCL: Running FEP window   5: Lambda1 0.7999999999999998 Lambda2 0.7499999999999998 [dLambda -0.050000000000000044]
TCL: Setting parameter firsttimestep to 0
TCL: Setting parameter alchLambda to 0.7999999999999998
Info: NONBONDED TABLE R-SQUARED SPACING: 0.0625
Info: NONBONDED TABLE SIZE: 705 POINTS
TCL: Setting parameter alchLambda2 to 0.7499999999999998
Info: NONBONDED TABLE R-SQUARED SPACING: 0.0625
Info: NONBONDED TABLE SIZE: 705 POINTS
TCL: Running for 1500000 steps
ETITLE: TS BOND ANGLE DIHED IMPRP ELECT VDW BOUNDARY MISC KINETIC TOTAL TEMP POTENTIAL TOTALAVG TEMPAVG PRESSURE GPRESSURE VOLUME PRESSAVG GPRESSAVG
ENERGY: 0 0.9951 5.1504 13.2545 0.0000 -10936.8320 1483.1441 0.0000 0.0000 1838.7464 -7595.5413 312.3373 -9434.2877 -7595.5413 312.3373 100.9447 195.0907 30383.0100 100.9447 195.0907
ENERGY: 300000 5.1577 4.2877 15.4506 0.0000 -10868.9226 1476.5415 0.0000 0.0000 1739.9882 -7627.4969 295.5618 -9367.4850 -7628.6350 302.1863 180.5181 225.8138 30937.0969 312.4595 368.6176
ENERGY: 600000 7.0650 3.7933 14.9962 0.0000 -10901.3354 1493.2005 0.0000 0.0000 1768.0090 -7614.2714 300.3216 -9382.2804 -7627.6708 302.9077 384.9121 387.4829 30447.7135 30.3565 88.0549
ENERGY: 900000 4.5259 4.5266 13.6572 0.0000 -10920.8994 1455.5780 0.0000 0.0000 1763.7208 -7678.8909 299.5931 -9442.6117 -7637.5233 301.0623 -262.6380 -200.5490 30564.8292 28.6416 86.1678
ENERGY: 1200000 1.7781 2.2369 14.7540 0.0000 -10969.8856 1475.0642 0.0000 0.0000 1733.1411 -7742.9114 294.3987 -9476.0525 -7652.8938 298.9509 201.3099 266.0336 29922.4152 8.0987 65.3062
ENERGY: 1500000 5.1577 3.3055 16.4578 0.0000 -10712.3712 1341.3464 0.0000 0.0000 1786.8386 -7559.2652 303.5200 -9346.1038 -7643.9465 299.4233 -494.0932 -388.8341 30367.9009 -87.0735 -29.2507
TCL: Running FEP window   6: Lambda1 0.7499999999999998 Lambda2 0.6999999999999997 [dLambda -0.050000000000000044]
TCL: Setting parameter firsttimestep to 0
TCL: Setting parameter alchLambda to 0.7499999999999998
Info: NONBONDED TABLE R-SQUARED SPACING: 0.0625
Info: NONBONDED TABLE SIZE: 705 POINTS
TCL: Setting parameter alchLambda2 to 0.6999999999999997
Info: NONBONDED TABLE R-SQUARED SPACING: 0.0625
Info: NONBONDED TABLE SIZE: 705 POINTS
TCL: Running for 1500000 steps
ETITLE: TS BOND ANGLE DIHED IMPRP ELECT VDW BOUNDARY MISC KINETIC TOTAL TEMP POTENTIAL TOTALAVG TEMPAVG PRESSURE GPRESSURE VOLUME PRESSAVG GPRESSAVG
ENERGY: 0 5.1577 3.3055 16.4578 0.0000 -10709.1061 1340.9774 0.0000 0.0000 1785.8885 -7557.3192 303.3586 -9343.2077 -7557.3192 303.3586 -474.5572 -396.8395 30367.9009 -474.5572 -396.8395
ENERGY: 300000 6.3058 3.3375 14.0668 0.0000 -10804.1036 1440.9854 0.0000 0.0000 1797.8415 -7541.5666 305.3890 -9339.4081 -7593.2914 302.3001 195.9807 335.5158 30435.3938 -260.0319 -187.6430
ENERGY: 600000 2.6418 3.2647 16.8662 0.0000 -10866.6394 1410.7770 0.0000 0.0000 1764.9948 -7668.0948 299.8095 -9433.0896 -7608.4022 302.9907 -308.3647 -259.4841 30347.1864 -294.3508 -231.2360
ENERGY: 900000 3.7410 4.6397 14.3169 0.0000 -10792.9169 1352.4672 0.0000 0.0000 1800.2461 -7617.5060 305.7975 -9417.7521 -7607.7863 302.4910 -617.5327 -604.9165 30235.1211 -261.4313 -205.0522
ENERGY: 1200000 3.3445 4.9503 14.8197 0.0000 -10926.0767 1522.7841 0.0000 0.0000 1705.0077 -7675.1705 289.6199 -9380.1782 -7617.8941 300.8906 745.5990 819.0406 30114.6344 -2.3845 52.1775
ENERGY: 1500000 4.9063 3.0671 15.3850 0.0000 -10869.3005 1424.7813 0.0000 0.0000 1746.2949 -7674.8659 296.6331 -9421.1608 -7619.2605 300.5112 -418.7348 -327.0939 30786.0264 -2.2295 50.6273
TCL: Running FEP window   7: Lambda1 0.6999999999999997 Lambda2 0.6499999999999997 [dLambda -0.050000000000000044]
TCL: Setting parameter firsttimestep to 0
TCL: Setting parameter alchLambda to 0.6999999999999997
Info: NONBONDED TABLE R-SQUARED SPACING: 0.0625
Info: NONBONDED TABLE SIZE: 705 POINTS
TCL: Setting parameter alchLambda2 to 0.6499999999999997
Info: NONBONDED TABLE R-SQUARED SPACING: 0.0625
Info: NONBONDED TABLE SIZE: 705 POINTS
TCL: Running for 1500000 steps
ETITLE: TS BOND ANGLE DIHED IMPRP ELECT VDW BOUNDARY MISC KINETIC TOTAL TEMP POTENTIAL TOTALAVG TEMPAVG PRESSURE GPRESSURE VOLUME PRESSAVG GPRESSAVG
ENERGY: 0 4.9063 3.0671 15.3850 0.0000 -10865.9432 1423.0010 0.0000 0.0000 1745.3943 -7674.1895 296.4801 -9419.5838 -7674.1895 296.4801 -425.8854 -342.4405 30786.0264 -425.8854 -342.4405
ENERGY: 300000 4.5622 3.4445 14.8959 0.0000 -10897.1514 1404.5313 0.0000 0.0000 1781.2048 -7688.5126 302.5630 -9469.7174 -7650.7409 298.7531 -389.0663 -303.4207 30248.0486 -120.3875 -30.8999
ENERGY: 600000 0.8484 3.4561 17.2638 0.0000 -10880.0791 1417.3155 0.0000 0.0000 1798.2307 -7642.9646 305.4551 -9441.1952 -7648.0930 298.3047 -144.6008 -94.8618 30088.4272 -286.0373 -204.7578
ENERGY: 900000 7.6140 3.5296 13.7744 0.0000 -10868.9371 1417.1386 0.0000 0.0000 1816.7109 -7610.1696 308.5943 -9426.8805 -7639.2879 299.3417 -406.0446 -332.9196 30727.1876 -275.8470 -201.6924
ENERGY: 1200000 1.0616 3.1730 13.4932 0.0000 -10925.2094 1443.2737 0.0000 0.0000 1748.8329 -7715.3750 297.0642 -9464.2079 -7636.7454 299.4162 -162.6970 -60.0086 30252.9362 -280.1111 -206.6904
ENERGY: 1500000 2.7010 2.8502 13.6634 0.0000 -10732.7353 1401.7710 0.0000 0.0000 1763.1105 -7548.6393 299.4895 -9311.7498 -7631.6986 299.6648 -328.9792 -289.9654 31040.2578 -320.1919 -246.4879
TCL: Running FEP window   8: Lambda1 0.6499999999999997 Lambda2 0.5999999999999996 [dLambda -0.050000000000000044]
TCL: Setting parameter firsttimestep to 0
TCL: Setting parameter alchLambda to 0.6499999999999997
Info: NONBONDED TABLE R-SQUARED SPACING: 0.0625
Info: NONBONDED TABLE SIZE: 705 POINTS
TCL: Setting parameter alchLambda2 to 0.5999999999999996
Info: NONBONDED TABLE R-SQUARED SPACING: 0.0625
Info: NONBONDED TABLE SIZE: 705 POINTS
TCL: Running for 1500000 steps
ETITLE: TS BOND ANGLE DIHED IMPRP ELECT VDW BOUNDARY MISC KINETIC TOTAL TEMP POTENTIAL TOTALAVG TEMPAVG PRESSURE GPRESSURE VOLUME PRESSAVG GPRESSAVG
ENERGY: 0 2.7010 2.8502 13.6634 0.0000 -10731.5539 1402.1717 0.0000 0.0000 1762.2182 -7547.9495 299.3379 -9310.1676 -7547.9495 299.3379 -380.7164 -292.7638 31040.2578 -380.7164 -292.7638
ENERGY: 300000 3.9831 5.8159 14.7289 0.0000 -10657.9302 1341.0947 0.0000 0.0000 1789.1594 -7503.1483 303.9142 -9292.3077 -7576.5392 300.4454 -448.6112 -483.9604 30692.9456 -247.1988 -195.2668
ENERGY: 600000 2.1277 5.2746 13.8028 0.0000 -10783.6805 1357.9325 0.0000 0.0000 1724.8897 -7679.6532 292.9971 -9404.5430 -7619.7114 298.3222 -712.6893 -669.8586 30198.9392 -117.4979 -66.6485
ENERGY: 900000 6.2373 4.2903 15.5854 0.0000 -10828.4285 1429.8812 0.0000 0.0000 1821.5526 -7550.8816 309.4167 -9372.4343 -7601.9705 299.2773 134.3953 209.6466 30269.2154 -215.8452 -156.0880
ENERGY: 1200000 1.7310 4.0217 16.5607 0.0000 -10802.1554 1447.6666 0.0000 0.0000 1745.5564 -7586.6190 296.5077 -9332.1754 -7617.3462 297.7524 155.6481 144.8107 30670.0203 -125.9127 -71.5644
ENERGY: 1500000 6.4061 2.4085 13.9098 0.0000 -10910.5075 1462.1149 0.0000 0.0000 1746.5165 -7679.1518 296.6707 -9425.6683 -7630.1732 297.2186 45.7039 137.7315 30324.2469 -71.8231 -18.9845
TCL: Running FEP window   9: Lambda1 0.5999999999999996 Lambda2 0.5499999999999996 [dLambda -0.050000000000000044]
TCL: Setting parameter firsttimestep to 0
TCL: Setting parameter alchLambda to 0.5999999999999996
Info: NONBONDED TABLE R-SQUARED SPACING: 0.0625
Info: NONBONDED TABLE SIZE: 705 POINTS
TCL: Setting parameter alchLambda2 to 0.5499999999999996
Info: NONBONDED TABLE R-SQUARED SPACING: 0.0625
Info: NONBONDED TABLE SIZE: 705 POINTS
TCL: Running for 1500000 steps
ETITLE: TS BOND ANGLE DIHED IMPRP ELECT VDW BOUNDARY MISC KINETIC TOTAL TEMP POTENTIAL TOTALAVG TEMPAVG PRESSURE GPRESSURE VOLUME PRESSAVG GPRESSAVG
ENERGY: 0 6.4061 2.4085 13.9098 0.0000 -10909.3859 1462.6852 0.0000 0.0000 1745.5939 -7678.3824 296.5140 -9423.9764 -7678.3824 296.5140 41.1845 139.5430 30324.2469 41.1845 139.5430
ENERGY: 300000 3.8029 5.4739 14.2473 0.0000 -10859.1159 1483.5093 0.0000 0.0000 1802.9562 -7549.1263 306.2578 -9352.0825 -7647.9849 300.6833 565.7924 599.3078 30293.7210 13.9906 90.1140
ENERGY: 600000 3.6389 2.3080 14.8954 0.0000 -10837.0402 1423.9485 0.0000 0.0000 1730.2335 -7662.0158 293.9049 -9392.2494 -7634.4512 301.0538 -287.7612 -275.4755 30430.9981 99.4093 170.3737
ENERGY: 900000 2.6934 2.4766 14.4840 0.0000 -10881.9678 1462.8338 0.0000 0.0000 1798.9589 -7600.5211 305.5788 -9399.4800 -7625.1376 301.0119 353.4654 366.8337 30163.6113 -50.1821 12.7586
ENERGY: 1200000 3.9549 2.6849 13.8311 0.0000 -10810.4168 1441.0296 0.0000 0.0000 1724.5724 -7624.3439 292.9432 -9348.9163 -7639.4155 298.7604 153.6870 268.2169 30431.3390 40.5864 107.7178
ENERGY: 1500000 1.1779 2.6821 13.4184 0.0000 -10800.3916 1425.8787 0.0000 0.0000 1808.1777 -7549.0568 307.1448 -9357.2345 -7631.6213 299.4211 -102.9157 -38.8052 30465.1544 20.4142 90.9461
TCL: Running FEP window  10: Lambda1 0.5499999999999996 Lambda2 0.4999999999999996 [dLambda -0.04999999999999999]
TCL: Setting parameter firsttimestep to 0
TCL: Setting parameter alchLambda to 0.5499999999999996
Info: NONBONDED TABLE R-SQUARED SPACING: 0.0625
Info: NONBONDED TABLE SIZE: 705 POINTS
TCL: Setting parameter alchLambda2 to 0.4999999999999996
Info: NONBONDED TABLE R-SQUARED SPACING: 0.0625
Info: NONBONDED TABLE SIZE: 705 POINTS
TCL: Running for 1500000 steps
ETITLE: TS BOND ANGLE DIHED IMPRP ELECT VDW BOUNDARY MISC KINETIC TOTAL TEMP POTENTIAL TOTALAVG TEMPAVG PRESSURE GPRESSURE VOLUME PRESSAVG GPRESSAVG
ENERGY: 0 1.1779 2.6821 13.4184 0.0000 -10798.3440 1425.7601 0.0000 0.0000 1807.2783 -7548.0271 306.9920 -9355.3055 -7548.0271 306.9920 -101.9831 -37.1761 30465.1544 -101.9831 -37.1761
ENERGY: 300000 2.7698 5.5392 13.5504 0.0000 -10809.5108 1449.9035 0.0000 0.0000 1759.9686 -7577.7794 298.9558 -9337.7479 -7583.8287 303.6321 148.2644 224.4945 30424.1316 206.3739 283.6931
ENERGY: 600000 6.2236 6.5000 14.9321 0.0000 -10970.2296 1476.1747 0.0000 0.0000 1803.9197 -7662.4794 306.4215 -9466.3991 -7604.7319 304.7094 127.7931 217.1494 30109.6227 74.3767 162.2070
ENERGY: 900000 4.5343 2.5698 13.3862 0.0000 -10863.5186 1441.9457 0.0000 0.0000 1780.2670 -7620.8155 302.4038 -9401.0826 -7612.5645 303.6235 22.4173 63.9521 30119.8130 144.7185 212.0124
ENERGY: 1200000 4.0847 3.2938 13.4888 0.0000 -10743.9809 1389.8271 0.0000 0.0000 1714.8043 -7618.4822 291.2840 -9333.2865 -7620.4953 302.0836 -524.1323 -464.5287 31054.5771 94.0335 154.8478
ENERGY: 1500000 3.1447 5.1237 15.9491 0.0000 -10996.4165 1498.5285 0.0000 0.0000 1766.2032 -7707.4672 300.0148 -9473.6704 -7619.6715 302.3046 401.0016 376.0063 30156.5918 98.0537 151.8508
TCL: Running FEP window  11: Lambda1 0.4999999999999996 Lambda2 0.4499999999999996 [dLambda -0.04999999999999999]
TCL: Setting parameter firsttimestep to 0
TCL: Setting parameter alchLambda to 0.4999999999999996
Info: NONBONDED TABLE R-SQUARED SPACING: 0.0625
Info: NONBONDED TABLE SIZE: 705 POINTS
TCL: Setting parameter alchLambda2 to 0.4499999999999996
Info: NONBONDED TABLE R-SQUARED SPACING: 0.0625
Info: NONBONDED TABLE SIZE: 705 POINTS
TCL: Running for 1500000 steps
ETITLE: TS BOND ANGLE DIHED IMPRP ELECT VDW BOUNDARY MISC KINETIC TOTAL TEMP POTENTIAL TOTALAVG TEMPAVG PRESSURE GPRESSURE VOLUME PRESSAVG GPRESSAVG
ENERGY: 0 3.1447 5.1237 15.9491 0.0000 -10996.3691 1498.8051 0.0000 0.0000 1765.3058 -7708.0406 299.8624 -9473.3465 -7708.0406 299.8624 285.3081 377.3190 30156.5918 285.3081 377.3190
ENERGY: 300000 3.1010 5.0385 13.4106 0.0000 -10832.6549 1412.1779 0.0000 0.0000 1749.4577 -7649.4692 297.1704 -9398.9269 -7660.1317 300.3190 -225.4531 -172.7307 30636.0356 -63.1562 -14.2887
ENERGY: 600000 8.2239 4.2194 15.2400 0.0000 -10773.3126 1367.0688 0.0000 0.0000 1745.8945 -7632.6659 296.5651 -9378.5605 -7632.7694 300.4357 -771.5416 -730.5523 30556.4263 -82.8654 -31.2295
ENERGY: 900000 5.6104 5.0027 14.9040 0.0000 -10973.1100 1498.9900 0.0000 0.0000 1769.2092 -7679.3938 300.5254 -9448.6030 -7641.7587 299.6838 314.6698 347.6834 30412.0949 -1.0073 52.6966
ENERGY: 1200000 2.6976 4.3097 15.1329 0.0000 -10974.8878 1614.4243 0.0000 0.0000 1778.9603 -7559.3630 302.1818 -9338.3234 -7630.1617 299.4611 1676.0666 1742.2565 30167.0087 122.0256 172.9463
ENERGY: 1500000 2.6276 7.9161 12.8356 0.0000 -10978.6166 1541.1271 0.0000 0.0000 1782.4784 -7631.6319 302.7794 -9414.1103 -7636.7839 299.8095 1056.6210 1115.7343 29727.9281 246.0677 295.1536
TCL: Running FEP window  12: Lambda1 0.4499999999999996 Lambda2 0.39999999999999963 [dLambda -0.04999999999999999]
TCL: Setting parameter firsttimestep to 0
TCL: Setting parameter alchLambda to 0.4499999999999996
Info: NONBONDED TABLE R-SQUARED SPACING: 0.0625
Info: NONBONDED TABLE SIZE: 705 POINTS
TCL: Setting parameter alchLambda2 to 0.39999999999999963
Info: NONBONDED TABLE R-SQUARED SPACING: 0.0625
Info: NONBONDED TABLE SIZE: 705 POINTS
TCL: Running for 1500000 steps
ETITLE: TS BOND ANGLE DIHED IMPRP ELECT VDW BOUNDARY MISC KINETIC TOTAL TEMP POTENTIAL TOTALAVG TEMPAVG PRESSURE GPRESSURE VOLUME PRESSAVG GPRESSAVG
ENERGY: 0 2.6276 7.9161 12.8356 0.0000 -10978.6178 1541.6576 0.0000 0.0000 1781.6102 -7631.9707 302.6319 -9413.5809 -7631.9707 302.6319 1015.9971 1113.0029 29727.9281 1015.9971 1113.0029
ENERGY: 300000 3.3376 5.2647 16.0287 0.0000 -10965.6640 1479.1335 0.0000 0.0000 1737.2292 -7724.6703 295.0932 -9461.8995 -7638.5544 300.6421 47.8713 81.0691 30218.4920 384.3416 440.2555
ENERGY: 600000 4.4852 2.8918 14.3258 0.0000 -10829.1753 1469.0076 0.0000 0.0000 1756.4798 -7581.9852 298.3631 -9338.4649 -7638.2974 300.6671 331.0937 416.1584 30422.2698 265.4548 328.3609
ENERGY: 900000 8.5988 6.9920 16.3716 0.0000 -10870.8891 1466.2223 0.0000 0.0000 1761.9468 -7610.7577 299.2918 -9372.7045 -7622.7746 301.6962 604.4420 647.7749 29820.7104 106.9120 170.5553
ENERGY: 1200000 5.1359 5.4439 13.9251 0.0000 -10849.9399 1391.3976 0.0000 0.0000 1783.5223 -7650.5152 302.9567 -9434.0376 -7628.3252 300.8499 -264.0649 -237.3858 30092.3137 35.7638 94.0487
ENERGY: 1500000 3.6599 3.1114 14.6205 0.0000 -10826.3133 1379.7832 0.0000 0.0000 1734.6917 -7690.4466 294.6621 -9425.1383 -7629.3436 300.8704 -605.8664 -551.0255 30343.6638 -67.8867 -10.8647
TCL: Running FEP window  13: Lambda1 0.39999999999999963 Lambda2 0.34999999999999964 [dLambda -0.04999999999999999]
TCL: Setting parameter firsttimestep to 0
TCL: Setting parameter alchLambda to 0.39999999999999963
Info: NONBONDED TABLE R-SQUARED SPACING: 0.0625
Info: NONBONDED TABLE SIZE: 705 POINTS
TCL: Setting parameter alchLambda2 to 0.34999999999999964
Info: NONBONDED TABLE R-SQUARED SPACING: 0.0625
Info: NONBONDED TABLE SIZE: 705 POINTS
TCL: Running for 1500000 steps
ETITLE: TS BOND ANGLE DIHED IMPRP ELECT VDW BOUNDARY MISC KINETIC TOTAL TEMP POTENTIAL TOTALAVG TEMPAVG PRESSURE GPRESSURE VOLUME PRESSAVG GPRESSAVG
ENERGY: 0 3.6599 3.1114 14.6205 0.0000 -10826.3133 1379.7705 0.0000 0.0000 1733.8312 -7691.3198 294.5160 -9425.1510 -7691.3198 294.5160 -650.7295 -559.1381 30343.6638 -650.7295 -559.1381
ENERGY: 300000 3.2125 3.4452 14.0024 0.0000 -10775.6796 1354.2600 0.0000 0.0000 1743.7075 -7657.0519 296.1936 -9400.7594 -7639.7845 298.9084 -814.0816 -714.4196 30493.8806 -183.0376 -85.6917
ENERGY: 600000 2.8598 7.5805 16.1207 0.0000 -10691.3787 1356.7578 0.0000 0.0000 1746.0115 -7562.0484 296.5850 -9308.0599 -7631.9460 299.6649 -586.4881 -476.1320 30502.2016 -35.2767 60.7020
ENERGY: 900000 3.0291 3.4399 14.9939 0.0000 -11007.3706 1533.4488 0.0000 0.0000 1761.0056 -7691.4532 299.1319 -9452.4588 -7637.4783 299.6948 562.2659 599.4128 30388.2064 123.9467 197.1359
ENERGY: 1200000 2.9667 4.6446 15.1384 0.0000 -10777.7648 1397.9605 0.0000 0.0000 1791.3959 -7565.6587 304.2942 -9357.0546 -7631.1121 299.6485 -509.4854 -477.6838 31250.9527 29.3398 93.2364
ENERGY: 1500000 4.1377 3.8029 17.3599 0.0000 -10928.3190 1501.3075 0.0000 0.0000 1854.1627 -7547.5482 314.9560 -9401.7109 -7623.0160 300.7196 434.7924 512.7150 30213.2634 48.7958 110.7752
TCL: Running FEP window  14: Lambda1 0.34999999999999964 Lambda2 0.29999999999999966 [dLambda -0.04999999999999999]
TCL: Setting parameter firsttimestep to 0
TCL: Setting parameter alchLambda to 0.34999999999999964
Info: NONBONDED TABLE R-SQUARED SPACING: 0.0625
Info: NONBONDED TABLE SIZE: 705 POINTS
TCL: Setting parameter alchLambda2 to 0.29999999999999966
Info: NONBONDED TABLE R-SQUARED SPACING: 0.0625
Info: NONBONDED TABLE SIZE: 705 POINTS
TCL: Running for 1500000 steps
ETITLE: TS BOND ANGLE DIHED IMPRP ELECT VDW BOUNDARY MISC KINETIC TOTAL TEMP POTENTIAL TOTALAVG TEMPAVG PRESSURE GPRESSURE VOLUME PRESSAVG GPRESSAVG
ENERGY: 0 4.1377 3.8029 17.3599 0.0000 -10928.3192 1501.7259 0.0000 0.0000 1853.2746 -7548.0181 314.8051 -9401.2927 -7548.0181 314.8051 423.7406 508.5261 30213.2634 423.7406 508.5261
ENERGY: 300000 9.0504 3.6848 15.5743 0.0000 -10746.7480 1351.2895 0.0000 0.0000 1746.7431 -7620.4059 296.7092 -9367.1490 -7587.2787 299.9051 -1103.6180 -1006.3080 31130.9269 -279.6988 -206.9496
ENERGY: 600000 5.1954 6.6400 14.6117 0.0000 -10750.8053 1357.1201 0.0000 0.0000 1828.1049 -7539.1332 310.5297 -9367.2382 -7571.0382 301.5489 -499.7804 -475.6115 30395.3576 -91.8161 -37.0066
ENERGY: 900000 2.5844 4.6845 16.0370 0.0000 -10931.9706 1502.8349 0.0000 0.0000 1721.0980 -7684.7319 292.3530 -9405.8299 -7589.4706 301.5639 459.2901 569.0796 29916.2474 86.5228 146.8325
ENERGY: 1200000 3.3571 2.3750 14.9426 0.0000 -10847.5519 1434.1548 0.0000 0.0000 1760.0767 -7632.6456 298.9741 -9392.7223 -7600.8301 301.7825 -136.1761 -68.5757 30431.9523 9.1036 61.6750
ENERGY: 1500000 3.0851 5.3529 14.0077 0.0000 -10841.6165 1436.3801 0.0000 0.0000 1865.5566 -7517.2342 316.8914 -9382.7908 -7605.5897 302.2632 106.2604 140.7915 30334.4134 16.4439 66.5886
TCL: Running FEP window  15: Lambda1 0.29999999999999966 Lambda2 0.24999999999999967 [dLambda -0.04999999999999999]
TCL: Setting parameter firsttimestep to 0
TCL: Setting parameter alchLambda to 0.29999999999999966
Info: NONBONDED TABLE R-SQUARED SPACING: 0.0625
Info: NONBONDED TABLE SIZE: 705 POINTS
TCL: Setting parameter alchLambda2 to 0.24999999999999967
Info: NONBONDED TABLE R-SQUARED SPACING: 0.0625
Info: NONBONDED TABLE SIZE: 705 POINTS
TCL: Running for 1500000 steps
ETITLE: TS BOND ANGLE DIHED IMPRP ELECT VDW BOUNDARY MISC KINETIC TOTAL TEMP POTENTIAL TOTALAVG TEMPAVG PRESSURE GPRESSURE VOLUME PRESSAVG GPRESSAVG
ENERGY: 0 3.0851 5.3529 14.0077 0.0000 -10841.6157 1436.5799 0.0000 0.0000 1864.6937 -7517.8965 316.7448 -9382.5902 -7517.8965 316.7448 56.9413 138.4121 30334.4134 56.9413 138.4121
ENERGY: 300000 4.3297 4.4009 14.3616 0.0000 -10861.6201 1405.1071 0.0000 0.0000 1760.0172 -7673.4035 298.9640 -9433.4207 -7600.5522 303.6347 -654.0608 -580.9142 30480.9826 -203.3541 -143.3109
ENERGY: 600000 5.7753 3.0853 14.2854 0.0000 -10798.7947 1353.9531 0.0000 0.0000 1797.4247 -7624.2709 305.3182 -9421.6956 -7619.6387 303.4166 -995.1071 -947.2294 30833.0674 -375.8974 -303.8098
ENERGY: 900000 3.6547 6.2897 14.4595 0.0000 -10873.5917 1449.0633 0.0000 0.0000 1800.2166 -7599.9078 305.7925 -9400.1244 -7610.3121 302.6318 -87.1453 -44.4886 30724.5323 -291.7707 -222.0670
ENERGY: 1200000 1.7779 3.9334 13.3839 0.0000 -10838.2835 1456.3484 0.0000 0.0000 1728.7015 -7634.1384 293.6446 -9362.8399 -7617.7055 301.8533 149.4828 182.3366 30617.4460 -219.6224 -151.3376
ENERGY: 1500000 3.5355 3.1383 14.0348 0.0000 -10668.6958 1355.9905 0.0000 0.0000 1753.1015 -7538.8952 297.7893 -9291.9967 -7624.6579 301.5225 -604.9554 -597.8885 30906.4304 -212.6005 -157.5094
TCL: Running FEP window  16: Lambda1 0.24999999999999967 Lambda2 0.19999999999999968 [dLambda -0.04999999999999999]
TCL: Setting parameter firsttimestep to 0
TCL: Setting parameter alchLambda to 0.24999999999999967
Info: NONBONDED TABLE R-SQUARED SPACING: 0.0625
Info: NONBONDED TABLE SIZE: 705 POINTS
TCL: Setting parameter alchLambda2 to 0.19999999999999968
Info: NONBONDED TABLE R-SQUARED SPACING: 0.0625
Info: NONBONDED TABLE SIZE: 705 POINTS
TCL: Running for 1500000 steps
ETITLE: TS BOND ANGLE DIHED IMPRP ELECT VDW BOUNDARY MISC KINETIC TOTAL TEMP POTENTIAL TOTALAVG TEMPAVG PRESSURE GPRESSURE VOLUME PRESSAVG GPRESSAVG
ENERGY: 0 3.5355 3.1383 14.0348 0.0000 -10668.6958 1355.9437 0.0000 0.0000 1752.2173 -7539.8262 297.6391 -9292.0435 -7539.8262 297.6391 -684.9073 -601.6838 30906.4304 -684.9073 -601.6838
ENERGY: 300000 3.7309 3.0933 15.3056 0.0000 -10979.6135 1526.5440 0.0000 0.0000 1788.1149 -7642.8249 303.7368 -9430.9398 -7626.7043 301.5663 450.8960 496.4606 30342.1194 4.3566 64.7555
ENERGY: 600000 2.5822 3.3620 13.6154 0.0000 -10801.4741 1388.3420 0.0000 0.0000 1747.7281 -7645.8442 296.8766 -9393.5723 -7624.4695 300.0626 -489.1278 -447.2128 30531.9772 3.8034 65.7243
ENERGY: 900000 3.5310 4.2860 16.0723 0.0000 -10827.4996 1505.9974 0.0000 0.0000 1741.9488 -7555.6641 295.8949 -9297.6129 -7624.9436 299.9582 537.7460 590.0230 30625.1519 138.9903 191.4684
ENERGY: 1200000 3.5129 4.7197 13.4140 0.0000 -10945.1714 1518.3143 0.0000 0.0000 1784.6334 -7620.5772 303.1454 -9405.2106 -7629.0990 299.3963 609.4991 667.8321 30201.6657 168.9405 219.8172
ENERGY: 1500000 3.2819 5.0563 13.8169 0.0000 -11055.0419 1546.8120 0.0000 0.0000 1741.8481 -7744.2269 295.8777 -9486.0749 -7626.9817 299.9912 541.0090 575.9723 30205.8045 199.3206 248.0687
TCL: Running FEP window  17: Lambda1 0.19999999999999968 Lambda2 0.1499999999999997 [dLambda -0.04999999999999999]
TCL: Setting parameter firsttimestep to 0
TCL: Setting parameter alchLambda to 0.19999999999999968
Info: NONBONDED TABLE R-SQUARED SPACING: 0.0625
Info: NONBONDED TABLE SIZE: 705 POINTS
TCL: Setting parameter alchLambda2 to 0.1499999999999997
Info: NONBONDED TABLE R-SQUARED SPACING: 0.0625
Info: NONBONDED TABLE SIZE: 705 POINTS
TCL: Running for 1500000 steps
ETITLE: TS BOND ANGLE DIHED IMPRP ELECT VDW BOUNDARY MISC KINETIC TOTAL TEMP POTENTIAL TOTALAVG TEMPAVG PRESSURE GPRESSURE VOLUME PRESSAVG GPRESSAVG
ENERGY: 0 3.2819 5.0563 13.8169 0.0000 -11055.0385 1546.3302 0.0000 0.0000 1740.9870 -7745.5662 295.7315 -9486.5532 -7745.5662 295.7315 481.1802 570.3485 30205.8045 481.1802 570.3485
ENERGY: 300000 4.5355 2.8853 15.4880 0.0000 -10776.6246 1314.4565 0.0000 0.0000 1751.0322 -7688.2272 297.4378 -9439.2594 -7658.2240 296.2137 -1155.9100 -1089.8647 30181.5413 -124.2016 -75.6633
ENERGY: 600000 5.9890 6.6696 16.0633 0.0000 -10914.0453 1416.7791 0.0000 0.0000 1747.7002 -7720.8441 296.8718 -9468.5442 -7669.5119 297.1251 -386.6028 -240.4612 30215.4426 -102.5511 -32.2862
ENERGY: 900000 3.0083 4.8104 15.3884 0.0000 -10826.2907 1453.7889 0.0000 0.0000 1754.2108 -7595.0838 297.9777 -9349.2946 -7659.9622 297.2668 290.4122 341.4399 30270.0978 -54.7830 7.1716
ENERGY: 1200000 2.7309 2.6602 15.6999 0.0000 -10803.6343 1422.4846 0.0000 0.0000 1807.1916 -7552.8671 306.9773 -9360.0587 -7650.3824 297.7120 -177.2149 -122.8837 30657.6739 -87.9268 -23.3665
ENERGY: 1500000 6.2495 3.2492 14.5728 0.0000 -10901.3635 1488.4354 0.0000 0.0000 1766.9300 -7621.9265 300.1383 -9388.8565 -7640.7240 298.7166 535.0280 609.7864 30279.7659 -53.2582 9.4321
TCL: Running FEP window  18: Lambda1 0.1499999999999997 Lambda2 0.09999999999999969 [dLambda -0.05 ]
TCL: Setting parameter firsttimestep to 0
TCL: Setting parameter alchLambda to 0.1499999999999997
Info: NONBONDED TABLE R-SQUARED SPACING: 0.0625
Info: NONBONDED TABLE SIZE: 705 POINTS
TCL: Setting parameter alchLambda2 to 0.09999999999999969
Info: NONBONDED TABLE R-SQUARED SPACING: 0.0625
Info: NONBONDED TABLE SIZE: 705 POINTS
TCL: Running for 1500000 steps
ETITLE: TS BOND ANGLE DIHED IMPRP ELECT VDW BOUNDARY MISC KINETIC TOTAL TEMP POTENTIAL TOTALAVG TEMPAVG PRESSURE GPRESSURE VOLUME PRESSAVG GPRESSAVG
ENERGY: 0 6.2495 3.2492 14.5728 0.0000 -10901.3624 1488.9334 0.0000 0.0000 1766.0520 -7622.3054 299.9891 -9388.3573 -7622.3054 299.9891 528.6371 608.3626 30279.7659 528.6371 608.3626
ENERGY: 300000 2.6209 5.4681 17.5822 0.0000 -10790.8378 1430.1552 0.0000 0.0000 1784.2336 -7550.7778 303.0775 -9335.0114 -7647.2848 297.9202 107.2632 172.5194 30201.3811 276.8078 344.8763
ENERGY: 600000 3.1930 4.3733 13.1237 0.0000 -10619.3848 1276.4617 0.0000 0.0000 1776.3816 -7545.8515 301.7438 -9322.2331 -7634.2924 297.5568 -1480.8532 -1377.3886 30825.4564 -132.9639 -56.4590
ENERGY: 900000 7.1915 6.3861 13.1922 0.0000 -10835.5765 1432.4154 0.0000 0.0000 1784.1223 -7592.2689 303.0586 -9376.3913 -7623.6025 299.1391 30.0050 109.0242 30218.7458 -175.9431 -99.6528
ENERGY: 1200000 4.7790 5.4122 13.4075 0.0000 -10715.7031 1365.4043 0.0000 0.0000 1760.1343 -7566.5658 298.9839 -9326.7002 -7619.4479 299.4631 -445.8153 -347.1813 30439.8645 -215.1740 -145.4200
ENERGY: 1500000 2.6019 4.3109 13.3600 0.0000 -10702.2672 1400.2504 0.0000 0.0000 1801.0971 -7480.6469 305.9420 -9281.7440 -7616.3597 299.4853 -209.2779 -166.9529 30670.5460 -167.1531 -98.4625
TCL: Running FEP window  19: Lambda1 0.09999999999999969 Lambda2 0.049999999999999684 [dLambda -0.05 ]
TCL: Setting parameter firsttimestep to 0
TCL: Setting parameter alchLambda to 0.09999999999999969
Info: NONBONDED TABLE R-SQUARED SPACING: 0.0625
Info: NONBONDED TABLE SIZE: 705 POINTS
TCL: Setting parameter alchLambda2 to 0.049999999999999684
Info: NONBONDED TABLE R-SQUARED SPACING: 0.0625
Info: NONBONDED TABLE SIZE: 705 POINTS
TCL: Running for 1500000 steps
ETITLE: TS BOND ANGLE DIHED IMPRP ELECT VDW BOUNDARY MISC KINETIC TOTAL TEMP POTENTIAL TOTALAVG TEMPAVG PRESSURE GPRESSURE VOLUME PRESSAVG GPRESSAVG
ENERGY: 0 2.6019 4.3109 13.3599 0.0000 -10702.2667 1400.0410 0.0000 0.0000 1800.2379 -7481.7151 305.7961 -9281.9529 -7481.7151 305.7961 -243.8616 -169.3501 30670.5460 -243.8616 -169.3501
ENERGY: 300000 2.2757 2.9977 14.6657 0.0000 -10866.9601 1483.6928 0.0000 0.0000 1790.8383 -7572.4899 304.1994 -9363.3282 -7605.7531 296.7274 258.4360 315.0463 30311.9215 298.2354 360.5736
ENERGY: 600000 4.6651 3.1954 13.8643 0.0000 -10827.1215 1376.6851 0.0000 0.0000 1752.1527 -7676.5588 297.6281 -9428.7115 -7616.8897 298.8901 -664.3306 -594.2763 30265.2142 34.5181 105.4530
ENERGY: 900000 3.9845 2.8200 15.1335 0.0000 -11113.2518 1572.6954 0.0000 0.0000 1722.3677 -7796.2506 292.5687 -9518.6183 -7635.3199 299.2177 716.4696 859.0102 29867.1625 98.4782 168.5003
ENERGY: 1200000 3.7604 2.3381 13.9758 0.0000 -10803.8098 1458.9281 0.0000 0.0000 1743.9153 -7580.8921 296.2289 -9324.8074 -7629.4741 298.1346 107.2955 133.4485 30666.9684 -3.2995 56.0432
ENERGY: 1500000 2.9325 9.4848 13.4763 0.0000 -10838.6580 1397.0801 0.0000 0.0000 1741.5901 -7674.0941 295.8339 -9415.6843 -7633.5962 298.2762 -475.5959 -421.5599 30423.3904 -85.9775 -20.7112
TCL: Running FEP window  20: Lambda1 0.049999999999999684 Lambda2 0.0    [dLambda -0.049999999999999684]
TCL: Setting parameter firsttimestep to 0
TCL: Setting parameter alchLambda to 0.049999999999999684
Info: NONBONDED TABLE R-SQUARED SPACING: 0.0625
Info: NONBONDED TABLE SIZE: 705 POINTS
TCL: Setting parameter alchLambda2 to 0.0
Info: NONBONDED TABLE R-SQUARED SPACING: 0.0625
Info: NONBONDED TABLE SIZE: 705 POINTS
TCL: Running for 1500000 steps
ETITLE: TS BOND ANGLE DIHED IMPRP ELECT VDW BOUNDARY MISC KINETIC TOTAL TEMP POTENTIAL TOTALAVG TEMPAVG PRESSURE GPRESSURE VOLUME PRESSAVG GPRESSAVG
ENERGY: 0 2.9325 9.4848 13.4763 0.0000 -10838.6585 1397.2516 0.0000 0.0000 1740.7018 -7674.8115 295.6830 -9415.5132 -7674.8115 295.6830 -512.3512 -424.7743 30423.3904 -512.3512 -424.7743
ENERGY: 300000 2.4025 3.2422 15.4061 0.0000 -10780.2824 1443.4542 0.0000 0.0000 1847.5337 -7468.2438 313.8300 -9315.7775 -7621.4843 299.1935 63.4286 122.0339 30769.8151 -259.7679 -179.4588
ENERGY: 600000 1.3796 2.4212 15.2616 0.0000 -10723.0408 1308.6164 0.0000 0.0000 1786.7535 -7608.6084 303.5056 -9395.3619 -7625.4368 299.6875 -1281.1389 -1153.6150 30593.7573 -196.2501 -117.9608
ENERGY: 900000 3.3233 5.9655 14.8784 0.0000 -10862.0315 1422.9410 0.0000 0.0000 1745.6448 -7669.2785 296.5227 -9414.9233 -7617.3166 300.0724 -197.6835 -136.1306 30185.7015 -165.2802 -92.3884
ENERGY: 1200000 3.6481 3.5143 14.2572 0.0000 -10897.2007 1459.0388 0.0000 0.0000 1781.8844 -7634.8580 302.6785 -9416.7424 -7620.2163 300.0724 6.0804 61.7016 30466.5798 -228.7433 -157.6748
ENERGY: 1500000 4.0034 7.3187 14.4311 0.0000 -10970.8264 1505.1774 0.0000 0.0000 1771.8776 -7668.0182 300.9787 -9439.8958 -7615.8412 300.3312 216.0319 289.2178 30274.0504 -141.9470 -74.0705
TCL: Exiting due to exit command.
