Info: SIMULATION PARAMETERS:
Info: TIMESTEP               1
Info: NUMBER OF STEPS        0
Info: STEPS PER CYCLE        10
Info: PERIODIC CELL BASIS 1  30 0 0
Info: PERIODIC CELL BASIS 2  0 30 0
Info: PERIODIC CELL BASIS 3  0 0 30
Info: PERIODIC CELL CENTER   0 0 0
Info: WRAPPING ALL CLUSTERS AROUND PERIODIC BOUNDARIES ON OUTPUT.
Info: FIRST LDB TIMESTEP     50
Info: LAST LDB TIMESTEP     -1
Info: HOM BACKGROUND SCALING 1
Info: MIN ATOMS PER PATCH    40
Info: EMPTY PATCH LOAD       40 ATOMS
Info: INITIAL TEMPERATURE    298
Info: CENTER OF MASS MOVING INITIALLY? NO
Info: DIELECTRIC             1
Info: EXCLUDE                SCALED ONE-FOUR
Info: 1-4 ELECTROSTATICS SCALED BY 1
Info: MODIFIED 1-4 VDW PARAMETERS WILL BE USED
Info: DCD FILENAME           output.dcd
Info: DCD FREQUENCY          2500
Info: DCD FIRST STEP         2500
Info: DCD FILE WILL CONTAIN UNIT CELL DATA
Info: NO EXTENDED SYSTEM TRAJECTORY OUTPUT
Info: NO VELOCITY DCD OUTPUT
Info: NO FORCE DCD OUTPUT
Info: OUTPUT FILENAME        output
Info: BINARY OUTPUT FILES WILL BE USED
Info: NO RESTART FILE
Info: SWITCHING ACTIVE
Info: SWITCHING ON           10
Info: SWITCHING OFF          12
Info: PAIRLIST DISTANCE      14
Info: PAIRLIST SHRINK RATE   0.01
Info: PAIRLIST GROW RATE     0.01
Info: PAIRLIST TRIGGER       0.3
Info: PAIRLISTS PER CYCLE    2
Info: PAIRLISTS ENABLED
Info: MARGIN                 0
Info: HYDROGEN GROUP CUTOFF  2.5
Info: PATCH DIMENSION        16.5
Info: ENERGY OUTPUT STEPS    2500
Info: ENERGY EVALUATION STEPS    2500
Info: OUTPUT ENERGY PRECISION 4
Info: CROSSTERM ENERGY INCLUDED IN DIHEDRAL
Info: TIMING OUTPUT STEPS    2500
Info: LANGEVIN DYNAMICS ACTIVE
Info: LANGEVIN TEMPERATURE   298
Info: LANGEVIN USING BBK INTEGRATOR
Info: LANGEVIN DAMPING COEFFICIENT IS 1 INVERSE PS
Info: LANGEVIN DYNAMICS NOT APPLIED TO HYDROGENS
Info: MULTILEVEL SUMMATION METHOD (MSM) FOR ELECTROSTATICS ACTIVE
Info: MSM WITH C1 CUBIC INTERPOLATION AND C2 TAYLOR SPLITTING
Info: FULL ELECTROSTATIC EVALUATION FREQUENCY      1
Info: USING VERLET I (r-RESPA) MTS SCHEME.
Info: C1 SPLITTING OF LONG RANGE ELECTROSTATICS
Info: PLACING ATOMS IN PATCHES BY HYDROGEN GROUPS
Info: RIGID BONDS TO HYDROGEN : ALL
Info:         ERROR TOLERANCE : 1e-08
Info:          MAX ITERATIONS : 100
Info: RIGID WATER USING SETTLE ALGORITHM
Info: RANDOM NUMBER SEED     1740223757
Info: USE HYDROGEN BONDS?    NO
Info: COORDINATE PDB         ionized.pdb
Info: STRUCTURE FILE         ionized.psf
Info: PARAMETER file: CHARMM format!
Info: PARAMETERS             par_all27_prot_lipid.inp
Info: USING ARITHMETIC MEAN TO COMBINE L-J SIGMA PARAMETERS
Info: SUMMARY OF PARAMETERS:
Info: 180 BONDS
Info: 447 ANGLES
Info: 566 DIHEDRAL
Info: 46 IMPROPER
Info: 6 CROSSTERM
Info: 119 VDW
Info: 0 VDW_PAIRS
Info: 0 NBTHOLE_PAIRS
Info: STRUCTURE SUMMARY:
Info: 2476 ATOMS
Info: 1650 BONDS
Info: 825 ANGLES
Info: 0 DIHEDRALS
Info: 0 IMPROPERS
Info: 0 CROSSTERMS
Info: 0 EXCLUSIONS
Info: 2475 RIGID BONDS
Info: 4953 DEGREES OF FREEDOM
Info: 826 HYDROGEN GROUPS
Info: 3 ATOMS IN LARGEST HYDROGEN GROUP
Info: 826 MIGRATION GROUPS
Info: 3 ATOMS IN LARGEST MIGRATION GROUP
Info: TOTAL MASS = 14885.7 amu
Info: TOTAL CHARGE = 1 e
Info: MASS DENSITY = 0.915513 g/cm^3
Info: ATOM DENSITY = 0.0917037 atoms/A^3
Info: ADDED 2475 IMPLICIT EXCLUSIONS
Info: NONBONDED TABLE R-SQUARED SPACING: 0.0625
Info: NONBONDED TABLE SIZE: 769 POINTS
Info: REMOVING COM VELOCITY 0.0295565 0.0271275 0.0453515
Info: MSM using C1 cubic interpolation
Info: MSM using C2 Taylor splitting function
Info: MSM block size decomposition along X is 8 grid points
Info: MSM block size decomposition along Y is 8 grid points
Info: MSM block size decomposition along Z is 8 grid points
Info: MSM grid spacing along X is 2.5 A
Info: MSM grid spacing along Y is 2.5 A
Info: MSM grid spacing along Z is 2.5 A
Info: MSM using 3 levels
Info:     level 0:  [0..11] x [0..11] x [0..11]
Info:     level 1:  [0..5] x [0..5] x [0..5]
Info:     level 2:  [0..2] x [0..2] x [0..2]
Info: MSM finished calculating stencils
Info: MSM finished creating map for grid levels
Info: MSM finished creating map for patches
Info: MSM has 9 interpolation / anterpolation objects (one per patch)
Info: MSM grid level 0 decomposed into 8 blocks ( 2 x 2 x 2 )
Info: MSM grid level 1 decomposed into 1 block ( 1 x 1 x 1 )
Info: MSM grid level 2 decomposed into 1 block ( 1 x 1 x 1 )
Info: MSM grid cutoff calculation decomposed into 783 work objects
TCL: Minimizing for 100 steps
ETITLE: TS BOND ANGLE DIHED IMPRP ELECT VDW BOUNDARY MISC KINETIC TOTAL TEMP POTENTIAL TOTAL3 TEMPAVG PRESSURE GPRESSURE VOLUME PRESSAVG GPRESSAVG
ENERGY: 0 0.0000 0.0000 0.0000 0.0000 -7348.6496 6353.7252 0.0000 0.0000 0.0000 -994.9244 0.0000 -994.9244 -994.9244 0.0000 75204.0846 46356.0499 27000.0000 75204.0846 46356.0499
ENERGY: 20 0.0000 0.0000 0.0000 0.0000 -8744.5980 644.7588 0.0000 0.0000 0.0000 -8099.8392 0.0000 -8099.8392 -8099.8392 0.0000 14286.6717 -2608.4258 27000.0000 14286.6717 -2608.4258
ENERGY: 40 0.0000 0.0000 0.0000 0.0000 -9255.3681 673.7888 0.0000 0.0000 0.0000 -8581.5793 0.0000 -8581.5793 -8581.5793 0.0000 14306.7127 -3612.4725 27000.0000 14306.7127 -3612.4725
ENERGY: 60 0.0000 0.0000 0.0000 0.0000 -9570.7011 738.1055 0.0000 0.0000 0.0000 -8832.5955 0.0000 -8832.5955 -8832.5955 0.0000 14889.9953 -3661.0807 27000.0000 14889.9953 -3661.0807
ENERGY: 80 0.0000 0.0000 0.0000 0.0000 -9709.9213 782.3743 0.0000 0.0000 0.0000 -8927.5469 0.0000 -8927.5469 -8927.5469 0.0000 15330.8015 -3519.6141 27000.0000 15330.8015 -3519.6141
ENERGY: 100 0.0000 0.0000 0.0000 0.0000 -9871.2261 823.7162 0.0000 0.0000 0.0000 -9047.5098 0.0000 -9047.5098 -9047.5098 0.0000 15748.0678 15672.3007 27000.0000 15748.0678 15672.3007
TCL: Running for 500000 steps
ETITLE: TS BOND ANGLE DIHED IMPRP ELECT VDW BOUNDARY MISC KINETIC TOTAL TEMP POTENTIAL TOTAL3 TEMPAVG PRESSURE GPRESSURE VOLUME PRESSAVG GPRESSAVG
ENERGY: 2500 0.0000 0.0000 0.0000 0.0000 -9192.7721 885.5002 0.0000 0.0000 1284.2966 -7022.9753 260.9681 -8307.2719 -7021.3159 239.1223 -2010.8081 -1990.6615 27000.0000 -1817.5011 -1817.4293
ENERGY: 102500 0.0000 0.0000 0.0000 0.0000 -8792.9371 797.0740 0.0000 0.0000 1499.0995 -6496.7636 304.6159 -7995.8631 -6496.6071 296.2510 -1824.3443 -1814.0518 27000.0000 -1438.5754 -1439.0519
ENERGY: 202500 0.0000 0.0000 0.0000 0.0000 -8708.0472 769.4698 0.0000 0.0000 1457.8193 -6480.7581 296.2277 -7938.5774 -6479.4175 296.7973 -1942.5707 -1948.2377 27000.0000 -1214.2926 -1214.3565
ENERGY: 300000 0.0000 0.0000 0.0000 0.0000 -8799.5669 844.1057 0.0000 0.0000 1492.7922 -6462.6689 303.3342 -7955.4612 -6461.5949 298.5386 -1198.1161 -1199.0999 27000.0000 -1512.1174 -1512.0766
ENERGY: 400000 0.0000 0.0000 0.0000 0.0000 -8782.0530 830.8047 0.0000 0.0000 1465.2794 -6485.9689 297.7436 -7951.2483 -6485.1678 302.7076 -1347.2025 -1373.3087 27000.0000 -1308.6015 -1308.6691
ENERGY: 500000 0.0000 0.0000 0.0000 0.0000 -8865.2736 869.3441 0.0000 0.0000 1433.1813 -6562.7482 291.2213 -7995.9295 -6561.3588 293.2734 -1100.0360 -1089.2184 27000.0000 -1430.0560 -1429.9770
