Info: SIMULATION PARAMETERS:
Info: TIMESTEP               2
Info: NUMBER OF STEPS        0
Info: STEPS PER CYCLE        10
Info: PERIODIC CELL BASIS 1  30.2204 0 0
Info: PERIODIC CELL BASIS 2  0 31.2841 0
Info: PERIODIC CELL BASIS 3  0 0 31.5597
Info: PERIODIC CELL CENTER   0 0 0
Info: WRAPPING WATERS AROUND PERIODIC BOUNDARIES ON OUTPUT.
Info: WRAPPING ALL CLUSTERS AROUND PERIODIC BOUNDARIES ON OUTPUT.
Info: FIRST LDB TIMESTEP     50
Info: LAST LDB TIMESTEP     -1
Info: HOM BACKGROUND SCALING 1
Info: PME BACKGROUND SCALING 1
Info: MIN ATOMS PER PATCH    40
Info: EMPTY PATCH LOAD       40 ATOMS
Info: VELOCITY FILE          mobley_1261349_equil.vel
Info: CENTER OF MASS MOVING INITIALLY? NO
Info: DIELECTRIC             1
Info: EXCLUDE                SCALED ONE-FOUR
Info: 1-4 ELECTROSTATICS SCALED BY 0.833333
Info: MODIFIED 1-4 VDW PARAMETERS WILL BE USED
Info: DCD FILENAME           mobley_1261349_prod.dcd
Info: DCD FREQUENCY          100000
Info: DCD FIRST STEP         100000
Info: DCD FILE WILL CONTAIN UNIT CELL DATA
Info: XST FILENAME           mobley_1261349_prod.xst
Info: XST FREQUENCY          100000
Info: NO VELOCITY DCD OUTPUT
Info: NO FORCE DCD OUTPUT
Info: OUTPUT FILENAME        mobley_1261349_prod
Info: BINARY OUTPUT FILES WILL BE USED
Info: RESTART FILENAME       mobley_1261349_prod.restart
Info: RESTART FREQUENCY      100000
Info: BINARY RESTART FILES WILL BE USED
Info: CUTOFF                 9
Info: PAIRLIST DISTANCE      11
Info: PAIRLIST SHRINK RATE   0.01
Info: PAIRLIST GROW RATE     0.01
Info: PAIRLIST TRIGGER       0.3
Info: PAIRLISTS PER CYCLE    2
Info: PAIRLISTS ENABLED
Info: MARGIN                 2
Info: HYDROGEN GROUP CUTOFF  2.5
Info: PATCH DIMENSION        15.5
Info: ENERGY OUTPUT STEPS    100000
Info: ENERGY EVALUATION STEPS    100000
Info: OUTPUT ENERGY PRECISION 4
Info: CROSSTERM ENERGY INCLUDED IN DIHEDRAL
Info: TIMING OUTPUT STEPS    1000000
Info: PRESSURE OUTPUT STEPS  100000
Info: ALCHEMICAL FEP ON
Info: FEP CURRENT LAMBDA VALUE     0
Info: FEP COMPARISON LAMBDA VALUE  0.05
Info: FEP INTRA-ALCHEMICAL NON-BONDED INTERACTIONS WILL BE RETAINED
Info: FEP INTRA-ALCHEMICAL BONDED INTERACTIONS WILL BE RETAINED
Info: FEP VDW SHIFTING COEFFICIENT 5
Info: FEP ELEC. ACTIVE FOR ANNIHILATED PARTICLES BETWEEN LAMBDA = 0 AND LAMBDA = 0.5
Info: FEP ELEC. ACTIVE FOR EXNIHILATED PARTICLES BETWEEN LAMBDA = 0.5 AND LAMBDA = 1
Info: FEP VDW ACTIVE FOR ANNIHILATED PARTICLES BETWEEN LAMBDA = 0 AND LAMBDA = 1
Info: FEP VDW ACTIVE FOR EXNIHILATED PARTICLES BETWEEN LAMBDA = 0 AND LAMBDA = 1
Info: FEP BOND ACTIVE FOR ANNIHILATED PARTICLES BETWEEN LAMBDA = 1 AND LAMBDA = 1
Info: FEP BOND ACTIVE FOR EXNIHILATED PARTICLES BETWEEN LAMBDA = 0 AND LAMBDA = 0
Info: LANGEVIN DYNAMICS ACTIVE
Info: LANGEVIN TEMPERATURE   300
Info: LANGEVIN USING BBK INTEGRATOR
Info: LANGEVIN DAMPING COEFFICIENT IS 1 INVERSE PS
Info: LANGEVIN DYNAMICS APPLIED TO HYDROGENS
Info: LANGEVIN PISTON PRESSURE CONTROL ACTIVE
Info:        TARGET PRESSURE IS 1.01325 BAR
Info:     OSCILLATION PERIOD IS 50 FS
Info:             DECAY TIME IS 25 FS
Info:     PISTON TEMPERATURE IS 300 K
Info:       PRESSURE CONTROL IS GROUP-BASED
Info:    INITIAL STRAIN RATE IS -0.000943608 -0.000943608 -0.000943608
Info:       CELL FLUCTUATION IS ISOTROPIC
Info: PARTICLE MESH EWALD (PME) ACTIVE
Info: PME TOLERANCE               1e-06
Info: PME EWALD COEFFICIENT       0.348832
Info: PME INTERPOLATION ORDER     4
Info: PME GRID DIMENSIONS         32 32 32
Info: PME MAXIMUM GRID SPACING    1
Info: PME CALCULATION WILL BE PERFORMED ON GPU
Info: FULL ELECTROSTATIC EVALUATION FREQUENCY      2
Info: USING VERLET I (r-RESPA) MTS SCHEME.
Info: C1 SPLITTING OF LONG RANGE ELECTROSTATICS
Info: PLACING ATOMS IN PATCHES BY HYDROGEN GROUPS
Info: RIGID BONDS TO HYDROGEN : ALL
Info:         ERROR TOLERANCE : 1e-08
Info:          MAX ITERATIONS : 100
Info: RIGID WATER USING SETTLE ALGORITHM
Info: RANDOM NUMBER SEED     1742311450
Info: USE HYDROGEN BONDS?    NO
Info: Using AMBER format force field!
Info: AMBER PARM FILE        mobley_1261349.prmtop
Info: COORDINATE PDB         mobley_1261349.pdb
Info: Exclusions will be read from PARM file!
Info: SCNB (VDW SCALING)     2
Info: USING ARITHMETIC MEAN TO COMBINE L-J SIGMA PARAMETERS
Info: BINARY COORDINATES     mobley_1261349_equil.coor
Info: SUMMARY OF PARAMETERS:
Info: 4 BONDS
Info: 3 ANGLES
Info:   3 HARMONIC
Info:   0 COSINE-BASED
Info: 1 DIHEDRAL
Info: 0 IMPROPER
Info: 0 CROSSTERM
Info: 0 VDW
Info: 10 VDW_PAIRS
Info: 0 NBTHOLE_PAIRS
Info: To read alchdata from file: mobley_1261349.pdb
Info: To read alchflag data from column: 5
Info: STRUCTURE SUMMARY:
Info: 2915 ATOMS
Info: 2914 BONDS
Info: 30 ANGLES
Info: 36 DIHEDRALS
Info: 0 IMPROPERS
Info: 0 CROSSTERMS
Info: 2980 EXCLUSIONS
Info: 2910 RIGID BONDS
Info: ALCH: 0 ATOMS TO DISAPPEAR IN FINAL STATE
Info: ALCH: 17 ATOMS TO APPEAR IN FINAL STATE
Info: 5835 DEGREES OF FREEDOM
Info: 971 HYDROGEN GROUPS
Info: 4 ATOMS IN LARGEST HYDROGEN GROUP
Info: 971 MIGRATION GROUPS
Info: 4 ATOMS IN LARGEST MIGRATION GROUP
Info: TOTAL MASS = 17475.6 amu
Info: TOTAL CHARGE = 0.000400018 e
Info: MASS DENSITY = 0.9726 g/cm^3
Info: ATOM DENSITY = 0.097697 atoms/A^3
Info: ADDED 0 IMPLICIT EXCLUSIONS
Info: NONBONDED TABLE R-SQUARED SPACING: 0.0625
Info: NONBONDED TABLE SIZE: 705 POINTS
Info: REMOVING COM VELOCITY -0.208768 -0.113993 -0.178391
Info: Use 3D box decompostion in PME FFT.
Info: Updated CUDA force table with 4096 elements.
Info: Updated CUDA LJ table with 4 x 4 elements.
Info: Found 20 unique exclusion lists needing 48 bytes
TCL: Running for 1500000 steps
ETITLE: TS BOND ANGLE DIHED IMPRP ELECT VDW BOUNDARY MISC KINETIC TOTAL TEMP POTENTIAL TOTALAVG TEMPAVG PRESSURE GPRESSURE VOLUME PRESSAVG GPRESSAVG
ENERGY: 0 1.2401 9.6578 0.3739 0.0000 -10728.1916 1587.4850 0.0000 0.0000 1752.8792 -7376.5556 302.3441 -9129.4348 -7376.5556 302.3441 1301.5682 1380.1844 29837.1405 1301.5682 1380.1844
ENERGY: 300000 1.0438 6.5745 0.7476 0.0000 -10526.9223 1332.2746 0.0000 0.0000 1757.0373 -7429.2446 303.0613 -9186.2819 -7388.7558 303.5933 -783.1571 -666.5154 29417.8691 29.2223 94.3011
ENERGY: 600000 1.4242 5.8206 0.9045 0.0000 -10528.8146 1388.4103 0.0000 0.0000 1742.7758 -7389.4792 300.6014 -9132.2550 -7402.8306 300.3081 -210.9768 -211.2280 29745.8486 -12.9142 40.9254
ENERGY: 900000 2.0728 6.7718 1.0417 0.0000 -10643.3832 1482.3603 0.0000 0.0000 1717.3710 -7433.7657 296.2195 -9151.1366 -7399.8651 300.7886 435.6464 447.3446 29713.6113 -36.7507 10.8965
ENERGY: 1200000 0.0846 6.8119 2.5684 0.0000 -10550.4033 1443.1715 0.0000 0.0000 1796.6215 -7301.1454 309.8890 -9097.7669 -7396.2551 300.6124 438.8811 505.7124 29606.3258 20.4932 64.3113
ENERGY: 1500000 2.9761 6.5112 0.6619 0.0000 -10513.8501 1367.5280 0.0000 0.0000 1749.3749 -7386.7980 301.7397 -9136.1729 -7401.1828 300.6407 -457.1036 -416.9539 29623.9984 -31.9303 16.4558
TCL: Running FEP window   2: Lambda1 0.05   Lambda2 0.1    [dLambda 0.05  ]
TCL: Setting parameter firsttimestep to 0
TCL: Setting parameter alchLambda to 0.05
Info: NONBONDED TABLE R-SQUARED SPACING: 0.0625
Info: NONBONDED TABLE SIZE: 705 POINTS
TCL: Setting parameter alchLambda2 to 0.1
Info: NONBONDED TABLE R-SQUARED SPACING: 0.0625
Info: NONBONDED TABLE SIZE: 705 POINTS
TCL: Running for 1500000 steps
ETITLE: TS BOND ANGLE DIHED IMPRP ELECT VDW BOUNDARY MISC KINETIC TOTAL TEMP POTENTIAL TOTALAVG TEMPAVG PRESSURE GPRESSURE VOLUME PRESSAVG GPRESSAVG
ENERGY: 0 2.9761 6.5112 0.6619 0.0000 -10513.8507 1369.1741 0.0000 0.0000 1748.4977 -7386.0297 301.5884 -9134.5274 -7386.0297 301.5884 -503.1323 -411.8567 29623.9984 -503.1323 -411.8567
ENERGY: 300000 0.4961 6.8648 1.6398 0.0000 -10453.2528 1333.4549 0.0000 0.0000 1726.1348 -7384.6624 297.7311 -9110.7972 -7399.3012 298.5411 -821.5231 -756.4708 30060.8675 -475.7677 -411.4566
ENERGY: 600000 4.0179 9.4773 0.6069 0.0000 -10564.7691 1413.5418 0.0000 0.0000 1729.2604 -7407.8648 298.2702 -9137.1252 -7383.3408 298.1303 -380.1626 -334.4629 30044.4856 -424.6242 -361.7064
ENERGY: 900000 1.7043 6.0150 0.8251 0.0000 -10533.7958 1409.7105 0.0000 0.0000 1713.0134 -7402.5274 295.4679 -9115.5408 -7389.5585 298.3632 -231.4857 -236.3652 29943.5240 -382.0532 -312.6727
ENERGY: 1200000 0.8494 7.8142 1.2835 0.0000 -10383.4340 1341.3054 0.0000 0.0000 1698.3204 -7333.8613 292.9336 -9032.1817 -7371.6027 297.8140 -730.3852 -701.3049 30528.4019 -457.4485 -385.9903
ENERGY: 1500000 3.3525 6.7452 1.1517 0.0000 -10585.3677 1387.6111 0.0000 0.0000 1803.7904 -7382.7168 311.1255 -9186.5072 -7377.4552 298.8934 -485.8220 -426.5991 29825.6987 -423.6342 -354.2814
TCL: Running FEP window   3: Lambda1 0.1    Lambda2 0.15000000000000002 [dLambda 0.05000000000000002]
TCL: Setting parameter firsttimestep to 0
TCL: Setting parameter alchLambda to 0.1
Info: NONBONDED TABLE R-SQUARED SPACING: 0.0625
Info: NONBONDED TABLE SIZE: 705 POINTS
TCL: Setting parameter alchLambda2 to 0.15000000000000002
Info: NONBONDED TABLE R-SQUARED SPACING: 0.0625
Info: NONBONDED TABLE SIZE: 705 POINTS
TCL: Running for 1500000 steps
ETITLE: TS BOND ANGLE DIHED IMPRP ELECT VDW BOUNDARY MISC KINETIC TOTAL TEMP POTENTIAL TOTALAVG TEMPAVG PRESSURE GPRESSURE VOLUME PRESSAVG GPRESSAVG
ENERGY: 0 3.3525 6.7452 1.1517 0.0000 -10585.3682 1388.6300 0.0000 0.0000 1802.9182 -7382.5706 310.9750 -9185.4888 -7382.5706 310.9750 -509.8958 -418.6425 29825.6987 -509.8958 -418.6425
ENERGY: 300000 0.6194 6.3506 1.1476 0.0000 -10720.1863 1538.2028 0.0000 0.0000 1714.4426 -7459.4233 295.7144 -9173.8659 -7381.2975 302.6932 884.3049 950.3433 29446.3951 24.9890 92.4305
ENERGY: 600000 2.5141 7.9834 0.9845 0.0000 -10568.2557 1402.1081 0.0000 0.0000 1731.9372 -7422.7283 298.7319 -9154.6655 -7379.9320 301.4854 -551.3599 -496.3615 30082.5568 -2.7654 44.4845
ENERGY: 900000 0.6581 8.1647 0.8529 0.0000 -10652.5296 1448.2436 0.0000 0.0000 1786.7910 -7407.8194 308.1934 -9194.6104 -7380.2568 302.2227 166.0094 210.3515 29440.7646 -10.5155 35.4500
ENERGY: 1200000 0.2912 8.0645 0.5660 0.0000 -10543.0368 1472.6043 0.0000 0.0000 1806.8700 -7254.6408 311.6567 -9061.5108 -7376.2128 302.4090 596.2485 649.9626 30105.2501 -10.3214 42.5858
ENERGY: 1500000 2.0149 8.7972 1.1459 0.0000 -10527.2436 1410.9767 0.0000 0.0000 1734.2311 -7370.0779 299.1276 -9104.3089 -7375.2722 301.7978 -172.9965 -115.9005 29697.4312 -24.5961 30.6686
TCL: Running FEP window   4: Lambda1 0.15000000000000002 Lambda2 0.2    [dLambda 0.04999999999999999]
TCL: Setting parameter firsttimestep to 0
TCL: Setting parameter alchLambda to 0.15000000000000002
Info: NONBONDED TABLE R-SQUARED SPACING: 0.0625
Info: NONBONDED TABLE SIZE: 705 POINTS
TCL: Setting parameter alchLambda2 to 0.2
Info: NONBONDED TABLE R-SQUARED SPACING: 0.0625
Info: NONBONDED TABLE SIZE: 705 POINTS
TCL: Running for 1500000 steps
ETITLE: TS BOND ANGLE DIHED IMPRP ELECT VDW BOUNDARY MISC KINETIC TOTAL TEMP POTENTIAL TOTALAVG TEMPAVG PRESSURE GPRESSURE VOLUME PRESSAVG GPRESSAVG
ENERGY: 0 2.0149 8.7972 1.1459 0.0000 -10527.2433 1412.4032 0.0000 0.0000 1733.3842 -7369.4979 298.9815 -9102.8821 -7369.4979 298.9815 -215.6450 -110.0412 29697.4312 -215.6450 -110.0412
ENERGY: 300000 4.0495 7.9830 0.3297 0.0000 -10511.3433 1415.3593 0.0000 0.0000 1690.4877 -7393.1341 291.5826 -9083.6218 -7380.3839 297.4713 -92.3598 -62.0227 29985.3860 -290.9661 -248.1757
ENERGY: 600000 0.8397 6.3688 1.2333 0.0000 -10655.3686 1532.0141 0.0000 0.0000 1738.5096 -7376.4031 299.8656 -9114.9127 -7379.6637 298.7612 1072.9947 1170.4192 29356.3194 -116.6710 -57.2442
ENERGY: 900000 0.8336 7.9408 0.1831 0.0000 -10326.6018 1295.4009 0.0000 0.0000 1741.6519 -7280.5915 300.4076 -9022.2434 -7388.0242 298.2160 -754.2923 -700.3825 30012.7766 -44.1651 11.0112
ENERGY: 1200000 1.1082 10.8185 1.0474 0.0000 -10460.4745 1405.0376 0.0000 0.0000 1765.3381 -7277.1247 304.4931 -9042.4628 -7373.5696 298.7814 78.6424 116.1696 29941.0701 -108.8211 -54.8279
ENERGY: 1500000 2.1145 8.2417 1.3194 0.0000 -10694.3162 1520.3550 0.0000 0.0000 1776.9560 -7385.3297 306.4970 -9162.2856 -7380.7393 299.0765 710.8792 841.3754 29534.6027 46.5964 105.5362
TCL: Running FEP window   5: Lambda1 0.2    Lambda2 0.25   [dLambda 0.04999999999999999]
TCL: Setting parameter firsttimestep to 0
TCL: Setting parameter alchLambda to 0.2
Info: NONBONDED TABLE R-SQUARED SPACING: 0.0625
Info: NONBONDED TABLE SIZE: 705 POINTS
TCL: Setting parameter alchLambda2 to 0.25
Info: NONBONDED TABLE R-SQUARED SPACING: 0.0625
Info: NONBONDED TABLE SIZE: 705 POINTS
TCL: Running for 1500000 steps
ETITLE: TS BOND ANGLE DIHED IMPRP ELECT VDW BOUNDARY MISC KINETIC TOTAL TEMP POTENTIAL TOTALAVG TEMPAVG PRESSURE GPRESSURE VOLUME PRESSAVG GPRESSAVG
ENERGY: 0 2.1145 8.2417 1.3194 0.0000 -10694.3159 1522.0391 0.0000 0.0000 1776.0630 -7384.5382 306.3430 -9160.6012 -7384.5382 306.3430 771.9555 853.2260 29534.6027 771.9555 853.2260
ENERGY: 300000 1.4671 7.9600 1.8845 0.0000 -10522.3370 1383.2195 0.0000 0.0000 1763.8875 -7363.9185 304.2429 -9127.8060 -7368.3080 302.8561 -402.2423 -395.9370 29960.2635 17.8933 92.1060
ENERGY: 600000 0.4152 6.7074 1.1084 0.0000 -10440.8360 1344.7527 0.0000 0.0000 1745.5409 -7342.3115 301.0784 -9087.8523 -7397.0904 300.5110 -605.5320 -586.3732 30248.3410 -107.6873 -43.4432
ENERGY: 900000 0.7144 7.4624 0.6966 0.0000 -10742.7053 1562.4074 0.0000 0.0000 1766.5931 -7404.8314 304.7095 -9171.4246 -7389.6800 301.8570 1062.7662 1135.9025 29588.3554 -13.3181 46.8055
ENERGY: 1200000 1.1785 12.6166 0.8194 0.0000 -10563.2626 1449.3904 0.0000 0.0000 1801.5454 -7297.7123 310.7383 -9099.2577 -7382.5119 302.0897 223.5312 264.8582 29885.9797 -53.6726 1.3726
ENERGY: 1500000 1.6604 6.1134 1.8132 0.0000 -10582.8460 1419.1118 0.0000 0.0000 1739.5918 -7414.5554 300.0522 -9154.1472 -7384.8591 301.5142 -266.3783 -123.0658 29792.8794 -98.2788 -37.9167
TCL: Running FEP window   6: Lambda1 0.25   Lambda2 0.3    [dLambda 0.04999999999999999]
TCL: Setting parameter firsttimestep to 0
TCL: Setting parameter alchLambda to 0.25
Info: NONBONDED TABLE R-SQUARED SPACING: 0.0625
Info: NONBONDED TABLE SIZE: 705 POINTS
TCL: Setting parameter alchLambda2 to 0.3
Info: NONBONDED TABLE R-SQUARED SPACING: 0.0625
Info: NONBONDED TABLE SIZE: 705 POINTS
TCL: Running for 1500000 steps
ETITLE: TS BOND ANGLE DIHED IMPRP ELECT VDW BOUNDARY MISC KINETIC TOTAL TEMP POTENTIAL TOTALAVG TEMPAVG PRESSURE GPRESSURE VOLUME PRESSAVG GPRESSAVG
ENERGY: 0 1.6604 6.1134 1.8132 0.0000 -10582.8444 1419.6264 0.0000 0.0000 1738.7408 -7414.8902 299.9055 -9153.6310 -7414.8902 299.9055 -209.0126 -118.4621 29792.8794 -209.0126 -118.4621
ENERGY: 300000 1.0306 10.3285 1.2856 0.0000 -10592.9840 1448.0752 0.0000 0.0000 1744.7150 -7387.5491 300.9359 -9132.2641 -7398.9757 300.0846 127.1524 214.0083 29843.0105 350.3656 408.5712
ENERGY: 600000 0.7063 10.3099 0.3626 0.0000 -10484.3650 1421.0517 0.0000 0.0000 1767.5982 -7284.3363 304.8829 -9051.9345 -7371.1387 301.7193 164.0474 146.3891 30136.9142 160.3109 220.1644
ENERGY: 900000 1.2123 7.4773 0.5197 0.0000 -10390.0164 1304.1528 0.0000 0.0000 1764.5356 -7312.1187 304.3547 -9076.6543 -7362.1622 302.6387 -936.2311 -914.6963 30165.5859 61.6831 116.4655
ENERGY: 1200000 0.7592 6.9043 1.2362 0.0000 -10559.2312 1431.1069 0.0000 0.0000 1698.9117 -7420.3128 293.0356 -9119.2245 -7362.5524 301.4583 -79.9808 -8.9208 29870.7570 -1.5029 62.1112
ENERGY: 1500000 1.7215 9.8218 0.8977 0.0000 -10648.1388 1479.8017 0.0000 0.0000 1772.6252 -7383.2709 305.7500 -9155.8961 -7365.0028 300.9638 589.7538 605.8469 29626.1957 12.1656 77.3559
TCL: Running FEP window   7: Lambda1 0.3    Lambda2 0.35   [dLambda 0.04999999999999999]
TCL: Setting parameter firsttimestep to 0
TCL: Setting parameter alchLambda to 0.3
Info: NONBONDED TABLE R-SQUARED SPACING: 0.0625
Info: NONBONDED TABLE SIZE: 705 POINTS
TCL: Setting parameter alchLambda2 to 0.35
Info: NONBONDED TABLE R-SQUARED SPACING: 0.0625
Info: NONBONDED TABLE SIZE: 705 POINTS
TCL: Running for 1500000 steps
ETITLE: TS BOND ANGLE DIHED IMPRP ELECT VDW BOUNDARY MISC KINETIC TOTAL TEMP POTENTIAL TOTALAVG TEMPAVG PRESSURE GPRESSURE VOLUME PRESSAVG GPRESSAVG
ENERGY: 0 1.7215 9.8218 0.8977 0.0000 -10648.1388 1479.9023 0.0000 0.0000 1771.7605 -7384.0351 305.6008 -9155.7956 -7384.0351 305.6008 532.2349 612.1300 29626.1957 532.2349 612.1300
ENERGY: 300000 2.6578 9.9469 0.5266 0.0000 -10580.9534 1437.8382 0.0000 0.0000 1753.9473 -7376.0366 302.5283 -9129.9839 -7367.5775 303.9178 144.9127 179.8257 29848.6473 654.5127 695.0657
ENERGY: 600000 3.3120 10.9285 0.4960 0.0000 -10523.7440 1383.6878 0.0000 0.0000 1761.8433 -7363.4764 303.8903 -9125.3197 -7383.8022 302.6452 -168.6284 -153.2770 29485.2395 160.7124 194.5455
ENERGY: 900000 0.3013 10.3698 0.9583 0.0000 -10431.0276 1401.3208 0.0000 0.0000 1702.3899 -7315.6876 293.6355 -9018.0774 -7383.0576 300.4230 212.8829 210.8730 29913.6500 115.1149 149.7116
ENERGY: 1200000 2.7587 10.5347 1.1521 0.0000 -10544.2984 1396.0739 0.0000 0.0000 1754.7730 -7379.0061 302.6708 -9133.7791 -7387.5812 300.0275 -274.4622 -209.6194 29866.2331 37.7527 72.9980
ENERGY: 1500000 0.5398 12.8162 0.4878 0.0000 -10522.6030 1377.8619 0.0000 0.0000 1748.2685 -7382.6288 301.5488 -9130.8972 -7389.6030 299.8923 -390.8650 -359.4725 29960.8045 37.9701 80.3780
TCL: Running FEP window   8: Lambda1 0.35   Lambda2 0.39999999999999997 [dLambda 0.04999999999999999]
TCL: Setting parameter firsttimestep to 0
TCL: Setting parameter alchLambda to 0.35
Info: NONBONDED TABLE R-SQUARED SPACING: 0.0625
Info: NONBONDED TABLE SIZE: 705 POINTS
TCL: Setting parameter alchLambda2 to 0.39999999999999997
Info: NONBONDED TABLE R-SQUARED SPACING: 0.0625
Info: NONBONDED TABLE SIZE: 705 POINTS
TCL: Running for 1500000 steps
ETITLE: TS BOND ANGLE DIHED IMPRP ELECT VDW BOUNDARY MISC KINETIC TOTAL TEMP POTENTIAL TOTALAVG TEMPAVG PRESSURE GPRESSURE VOLUME PRESSAVG GPRESSAVG
ENERGY: 0 0.5398 12.8162 0.4878 0.0000 -10522.6024 1378.1587 0.0000 0.0000 1747.3945 -7383.2053 301.3981 -9130.5998 -7383.2053 301.3981 -426.5524 -352.6240 29960.8045 -426.5524 -352.6240
ENERGY: 300000 1.5528 7.5334 1.0839 0.0000 -10570.5285 1467.1262 0.0000 0.0000 1678.4780 -7414.7543 289.5111 -9093.2323 -7353.6081 301.3220 495.6064 529.1207 29702.5763 -57.8685 27.9705
ENERGY: 600000 1.3490 9.2118 1.8278 0.0000 -10573.0672 1485.1855 0.0000 0.0000 1750.9622 -7324.5309 302.0135 -9075.4931 -7372.4159 302.2729 720.1508 790.4618 29832.3039 -15.7967 58.5563
ENERGY: 900000 1.0007 8.4420 0.8441 0.0000 -10577.5717 1404.4258 0.0000 0.0000 1806.0823 -7356.7768 311.5208 -9162.8591 -7372.8118 301.7597 -136.3951 -52.5076 29763.1900 -12.9330 60.0374
ENERGY: 1200000 4.7539 11.4125 0.3735 0.0000 -10487.3288 1409.5926 0.0000 0.0000 1743.7225 -7317.4738 300.7647 -9061.1963 -7365.1919 301.0856 -101.3532 -48.2185 29985.3488 -70.9708 -5.8653
ENERGY: 1500000 0.5492 4.6501 0.3261 0.0000 -10627.3440 1483.8063 0.0000 0.0000 1743.4593 -7394.5530 300.7193 -9138.0123 -7369.7884 301.2096 689.3218 687.2875 29609.9069 -15.0923 48.1416
TCL: Running FEP window   9: Lambda1 0.39999999999999997 Lambda2 0.44999999999999996 [dLambda 0.04999999999999999]
TCL: Setting parameter firsttimestep to 0
TCL: Setting parameter alchLambda to 0.39999999999999997
Info: NONBONDED TABLE R-SQUARED SPACING: 0.0625
Info: NONBONDED TABLE SIZE: 705 POINTS
TCL: Setting parameter alchLambda2 to 0.44999999999999996
Info: NONBONDED TABLE R-SQUARED SPACING: 0.0625
Info: NONBONDED TABLE SIZE: 705 POINTS
TCL: Running for 1500000 steps
ETITLE: TS BOND ANGLE DIHED IMPRP ELECT VDW BOUNDARY MISC KINETIC TOTAL TEMP POTENTIAL TOTALAVG TEMPAVG PRESSURE GPRESSURE VOLUME PRESSAVG GPRESSAVG
ENERGY: 0 0.5492 4.6501 0.3261 0.0000 -10627.3445 1483.6307 0.0000 0.0000 1742.5619 -7395.6265 300.5645 -9138.1884 -7395.6265 300.5645 593.6712 691.3456 29609.9069 593.6712 691.3456
ENERGY: 300000 2.5728 6.9301 1.5281 0.0000 -10632.6348 1448.8615 0.0000 0.0000 1769.0842 -7403.6581 305.1392 -9172.7423 -7374.4317 303.0705 129.2328 143.6199 29727.3291 547.6972 600.7147
ENERGY: 600000 0.2813 11.2589 0.1489 0.0000 -10382.4986 1377.0953 0.0000 0.0000 1773.3144 -7220.3999 305.8689 -8993.7142 -7361.1735 303.2795 -153.7045 -50.4769 30339.5251 220.5825 285.7747
ENERGY: 900000 0.7440 6.9443 1.0522 0.0000 -10616.5990 1444.9282 0.0000 0.0000 1657.7632 -7505.1671 285.9381 -9162.9303 -7387.4395 299.9855 -117.9270 -88.2673 30297.7278 110.9269 166.6124
ENERGY: 1200000 1.8937 13.7601 0.8917 0.0000 -10411.0062 1295.1697 0.0000 0.0000 1767.0926 -7332.1983 304.7957 -9099.2909 -7388.6693 300.8411 -1035.8415 -917.8227 30097.2185 83.6079 136.0047
ENERGY: 1500000 0.5491 5.7955 0.9743 0.0000 -10481.0435 1338.0482 0.0000 0.0000 1731.3975 -7404.2790 298.6389 -9135.6765 -7389.4456 300.6470 -814.8191 -752.3319 30419.6794 33.7994 93.4338
TCL: Running FEP window  10: Lambda1 0.44999999999999996 Lambda2 0.49999999999999994 [dLambda 0.04999999999999999]
TCL: Setting parameter firsttimestep to 0
TCL: Setting parameter alchLambda to 0.44999999999999996
Info: NONBONDED TABLE R-SQUARED SPACING: 0.0625
Info: NONBONDED TABLE SIZE: 705 POINTS
TCL: Setting parameter alchLambda2 to 0.49999999999999994
Info: NONBONDED TABLE R-SQUARED SPACING: 0.0625
Info: NONBONDED TABLE SIZE: 705 POINTS
TCL: Running for 1500000 steps
ETITLE: TS BOND ANGLE DIHED IMPRP ELECT VDW BOUNDARY MISC KINETIC TOTAL TEMP POTENTIAL TOTALAVG TEMPAVG PRESSURE GPRESSURE VOLUME PRESSAVG GPRESSAVG
ENERGY: 0 0.5491 5.7955 0.9743 0.0000 -10481.0441 1338.3092 0.0000 0.0000 1730.5832 -7404.8328 298.4984 -9135.4160 -7404.8328 298.4984 -836.9310 -746.5379 30419.6794 -836.9310 -746.5379
ENERGY: 300000 1.7497 6.9956 0.6318 0.0000 -10530.3288 1462.9883 0.0000 0.0000 1728.0191 -7329.9444 298.0561 -9057.9634 -7355.1350 299.0474 276.7976 342.4443 30087.4010 -247.0910 -163.4689
ENERGY: 600000 1.1307 6.5715 0.9899 0.0000 -10579.5546 1454.6858 0.0000 0.0000 1728.3019 -7387.8748 298.1049 -9116.1768 -7354.6591 299.1590 20.7455 111.9403 30352.7220 -278.3001 -194.5919
ENERGY: 900000 1.5582 11.8835 2.4207 0.0000 -10429.5156 1380.2556 0.0000 0.0000 1846.1452 -7187.2524 318.4310 -9033.3976 -7347.1117 301.4820 -203.6852 -190.0698 30598.3108 -272.0077 -201.1416
ENERGY: 1200000 0.2344 11.8393 1.9117 0.0000 -10665.6717 1499.6608 0.0000 0.0000 1701.8309 -7450.1946 293.5391 -9152.0255 -7353.9180 300.5186 672.8943 670.0845 29559.0304 -156.9597 -93.7946
ENERGY: 1500000 2.1844 6.7686 0.3466 0.0000 -10425.2027 1317.6309 0.0000 0.0000 1671.7024 -7426.5698 288.3424 -9098.2722 -7358.4145 299.4904 -781.1123 -715.2933 29953.9078 -187.6176 -126.1274
TCL: Running FEP window  11: Lambda1 0.49999999999999994 Lambda2 0.5499999999999999 [dLambda 0.04999999999999999]
TCL: Setting parameter firsttimestep to 0
TCL: Setting parameter alchLambda to 0.49999999999999994
Info: NONBONDED TABLE R-SQUARED SPACING: 0.0625
Info: NONBONDED TABLE SIZE: 705 POINTS
TCL: Setting parameter alchLambda2 to 0.5499999999999999
Info: NONBONDED TABLE R-SQUARED SPACING: 0.0625
Info: NONBONDED TABLE SIZE: 705 POINTS
TCL: Running for 1500000 steps
ETITLE: TS BOND ANGLE DIHED IMPRP ELECT VDW BOUNDARY MISC KINETIC TOTAL TEMP POTENTIAL TOTALAVG TEMPAVG PRESSURE GPRESSURE VOLUME PRESSAVG GPRESSAVG
ENERGY: 0 2.1844 6.7686 0.3466 0.0000 -10425.2021 1318.4247 0.0000 0.0000 1670.7750 -7426.7029 288.1824 -9097.4779 -7426.7029 288.1824 -792.7673 -701.6587 29953.9078 -792.7673 -701.6587
ENERGY: 300000 0.7289 7.0484 1.5305 0.0000 -10747.6578 1535.9233 0.0000 0.0000 1778.4357 -7423.9909 306.7522 -9202.4267 -7380.4129 300.1325 667.5626 721.6674 29927.2205 -304.9981 -237.8720
ENERGY: 600000 1.4024 9.2552 2.0766 0.0000 -10576.8094 1415.5448 0.0000 0.0000 1771.4558 -7377.0746 305.5483 -9148.5304 -7373.3309 301.0360 -182.4947 -94.9408 30130.1896 -112.1500 -46.4694
ENERGY: 900000 1.0638 8.0528 0.5947 0.0000 -10437.0089 1380.8444 0.0000 0.0000 1710.9909 -7335.4624 295.1190 -9046.4533 -7362.8430 300.8734 39.3590 86.4275 29781.5977 -36.1376 18.4754
ENERGY: 1200000 1.0271 7.4552 0.4015 0.0000 -10594.4179 1401.8621 0.0000 0.0000 1762.6478 -7421.0243 304.0290 -9183.6721 -7364.7269 301.5180 -216.0095 -178.4053 29920.4019 -89.1402 -42.7487
ENERGY: 1500000 0.3853 6.9928 0.3834 0.0000 -10479.6005 1363.8690 0.0000 0.0000 1710.4435 -7397.5266 295.0246 -9107.9701 -7375.0401 300.1394 -520.7939 -447.7015 30041.2661 -137.2676 -83.2317
TCL: Running FEP window  12: Lambda1 0.5499999999999999 Lambda2 0.6    [dLambda 0.050000000000000044]
TCL: Setting parameter firsttimestep to 0
TCL: Setting parameter alchLambda to 0.5499999999999999
Info: NONBONDED TABLE R-SQUARED SPACING: 0.0625
Info: NONBONDED TABLE SIZE: 705 POINTS
TCL: Setting parameter alchLambda2 to 0.6
Info: NONBONDED TABLE R-SQUARED SPACING: 0.0625
Info: NONBONDED TABLE SIZE: 705 POINTS
TCL: Running for 1500000 steps
ETITLE: TS BOND ANGLE DIHED IMPRP ELECT VDW BOUNDARY MISC KINETIC TOTAL TEMP POTENTIAL TOTALAVG TEMPAVG PRESSURE GPRESSURE VOLUME PRESSAVG GPRESSAVG
ENERGY: 0 0.3853 6.9928 0.3834 0.0000 -10479.6728 1364.7191 0.0000 0.0000 1709.5756 -7397.6167 294.8749 -9107.1923 -7397.6167 294.8749 -510.2994 -431.7768 30041.2661 -510.2994 -431.7768
ENERGY: 300000 0.8196 9.0350 1.3098 0.0000 -10572.3431 1427.3920 0.0000 0.0000 1770.8652 -7362.9216 305.4464 -9133.7868 -7369.9324 298.1589 232.6493 258.2017 29700.0717 -248.0568 -181.0912
ENERGY: 600000 1.5086 8.2954 1.2112 0.0000 -10440.0031 1345.2589 0.0000 0.0000 1740.7130 -7343.0161 300.2456 -9083.7290 -7383.7651 299.4810 -531.9039 -498.1669 30028.5729 -230.9028 -178.2902
ENERGY: 900000 1.7845 8.8079 0.6124 0.0000 -10660.3452 1485.8604 0.0000 0.0000 1738.1661 -7425.1139 299.8063 -9163.2800 -7379.6674 300.0143 515.7925 604.4082 29604.5821 -119.0326 -61.4405
ENERGY: 1200000 0.5305 7.2350 0.8248 0.0000 -10624.4839 1483.4041 0.0000 0.0000 1699.5192 -7432.9703 293.1403 -9132.4895 -7382.9832 299.4473 489.3002 609.2561 29756.1472 -107.0344 -42.1786
ENERGY: 1500000 0.5823 8.1809 1.1342 0.0000 -10608.2478 1517.8349 0.0000 0.0000 1744.7172 -7335.7983 300.9363 -9080.5155 -7376.7970 300.6928 873.8686 867.1823 29987.8077 -44.7781 20.5088
TCL: Running FEP window  13: Lambda1 0.6    Lambda2 0.65   [dLambda 0.050000000000000044]
TCL: Setting parameter firsttimestep to 0
TCL: Setting parameter alchLambda to 0.6
Info: NONBONDED TABLE R-SQUARED SPACING: 0.0625
Info: NONBONDED TABLE SIZE: 705 POINTS
TCL: Setting parameter alchLambda2 to 0.65
Info: NONBONDED TABLE R-SQUARED SPACING: 0.0625
Info: NONBONDED TABLE SIZE: 705 POINTS
TCL: Running for 1500000 steps
ETITLE: TS BOND ANGLE DIHED IMPRP ELECT VDW BOUNDARY MISC KINETIC TOTAL TEMP POTENTIAL TOTALAVG TEMPAVG PRESSURE GPRESSURE VOLUME PRESSAVG GPRESSAVG
ENERGY: 0 0.5823 8.1809 1.1342 0.0000 -10608.1924 1518.1179 0.0000 0.0000 1743.8367 -7336.3403 300.7844 -9080.1771 -7336.3403 300.7844 785.0203 878.2469 29987.8077 785.0203 878.2469
ENERGY: 300000 0.9511 7.4916 1.6289 0.0000 -10717.1244 1459.2113 0.0000 0.0000 1726.2744 -7521.5671 297.7552 -9247.8415 -7390.4661 304.6083 174.0524 224.0288 29709.2462 -26.4735 30.5224
ENERGY: 600000 0.9647 6.8548 1.3857 0.0000 -10618.2807 1454.6974 0.0000 0.0000 1747.5323 -7406.8458 301.4219 -9154.3781 -7390.1989 302.7997 110.5708 143.1602 29972.1328 100.4990 173.8595
ENERGY: 900000 1.2685 11.2710 0.6303 0.0000 -10509.7042 1408.6294 0.0000 0.0000 1786.2676 -7301.6374 308.1031 -9087.9050 -7378.7901 303.0155 -79.0892 -85.3691 29999.9292 52.5285 109.4902
ENERGY: 1200000 2.2297 8.4548 1.2001 0.0000 -10414.8110 1370.1470 0.0000 0.0000 1739.6364 -7293.1432 300.0599 -9032.7795 -7367.6185 303.6584 -191.8979 -115.4305 29761.4768 23.4683 82.5595
ENERGY: 1500000 0.5454 11.6575 0.6853 0.0000 -10379.6987 1322.3970 0.0000 0.0000 1715.9235 -7328.4901 295.9698 -9044.4136 -7371.8731 301.9621 -450.9297 -408.7495 30037.8121 -76.3298 -20.3669
TCL: Running FEP window  14: Lambda1 0.65   Lambda2 0.7000000000000001 [dLambda 0.050000000000000044]
TCL: Setting parameter firsttimestep to 0
TCL: Setting parameter alchLambda to 0.65
Info: NONBONDED TABLE R-SQUARED SPACING: 0.0625
Info: NONBONDED TABLE SIZE: 705 POINTS
TCL: Setting parameter alchLambda2 to 0.7000000000000001
Info: NONBONDED TABLE R-SQUARED SPACING: 0.0625
Info: NONBONDED TABLE SIZE: 705 POINTS
TCL: Running for 1500000 steps
ETITLE: TS BOND ANGLE DIHED IMPRP ELECT VDW BOUNDARY MISC KINETIC TOTAL TEMP POTENTIAL TOTALAVG TEMPAVG PRESSURE GPRESSURE VOLUME PRESSAVG GPRESSAVG
ENERGY: 0 0.5454 11.6575 0.6853 0.0000 -10379.6840 1322.0699 0.0000 0.0000 1715.0439 -7329.6820 295.8181 -9044.7259 -7329.6820 295.8181 -484.0548 -405.7581 30037.8121 -484.0548 -405.7581
ENERGY: 300000 0.3913 6.3851 0.3397 0.0000 -10472.1445 1376.6218 0.0000 0.0000 1695.9231 -7392.4835 292.5201 -9088.4066 -7386.3027 297.8665 -222.4452 -164.9233 30092.9666 -275.2390 -211.5625
ENERGY: 600000 2.0157 7.2840 0.7162 0.0000 -10514.5314 1411.1689 0.0000 0.0000 1778.2680 -7315.0786 306.7233 -9093.3466 -7379.4918 298.9497 359.5407 344.8583 29681.3887 -293.3705 -246.3279
ENERGY: 900000 2.6774 9.0994 0.8765 0.0000 -10637.1195 1409.5791 0.0000 0.0000 1739.0503 -7475.8368 299.9588 -9214.8871 -7406.3456 298.7133 -451.8027 -395.9908 29968.4945 -227.9765 -171.6936
ENERGY: 1200000 2.2452 8.6008 1.4602 0.0000 -10498.7541 1371.9180 0.0000 0.0000 1713.5006 -7401.0293 295.5519 -9114.5299 -7395.6433 298.1788 -619.4695 -581.0390 30406.6158 -140.3366 -78.1751
ENERGY: 1500000 1.6042 4.2156 0.3002 0.0000 -10553.0377 1425.2238 0.0000 0.0000 1738.2766 -7383.4173 299.8254 -9121.6939 -7389.3367 299.7047 369.0068 419.5521 29567.7771 -44.8719 14.8456
TCL: Running FEP window  15: Lambda1 0.7000000000000001 Lambda2 0.7500000000000001 [dLambda 0.050000000000000044]
TCL: Setting parameter firsttimestep to 0
TCL: Setting parameter alchLambda to 0.7000000000000001
Info: NONBONDED TABLE R-SQUARED SPACING: 0.0625
Info: NONBONDED TABLE SIZE: 705 POINTS
TCL: Setting parameter alchLambda2 to 0.7500000000000001
Info: NONBONDED TABLE R-SQUARED SPACING: 0.0625
Info: NONBONDED TABLE SIZE: 705 POINTS
TCL: Running for 1500000 steps
ETITLE: TS BOND ANGLE DIHED IMPRP ELECT VDW BOUNDARY MISC KINETIC TOTAL TEMP POTENTIAL TOTALAVG TEMPAVG PRESSURE GPRESSURE VOLUME PRESSAVG GPRESSAVG
ENERGY: 0 1.6042 4.2156 0.3002 0.0000 -10552.9785 1425.0651 0.0000 0.0000 1737.4129 -7384.3804 299.6764 -9121.7934 -7384.3804 299.6764 350.3993 426.7966 29567.7771 350.3993 426.7966
ENERGY: 300000 0.7782 8.4862 1.2096 0.0000 -10603.5093 1442.1316 0.0000 0.0000 1729.8771 -7421.0266 298.3766 -9150.9037 -7419.7086 299.7299 161.2326 191.1370 29889.8666 164.0705 212.7916
ENERGY: 600000 1.3550 6.7175 1.5236 0.0000 -10593.6873 1460.0218 0.0000 0.0000 1700.6118 -7423.4576 293.3288 -9124.0694 -7395.7064 299.1334 34.8210 113.2286 30134.2847 192.3719 249.8080
ENERGY: 900000 2.4140 6.7937 1.7104 0.0000 -10493.8898 1410.8540 0.0000 0.0000 1757.2103 -7314.9073 303.0912 -9072.1177 -7385.4099 299.7270 252.6352 312.8636 29895.3559 163.8133 223.1182
ENERGY: 1200000 0.9655 10.2324 1.0192 0.0000 -10522.1513 1424.4167 0.0000 0.0000 1733.3221 -7352.1954 298.9708 -9085.5176 -7388.1860 298.7161 255.1556 356.6830 29629.7175 105.8729 168.2771
ENERGY: 1500000 0.7661 9.4821 0.6585 0.0000 -10487.0529 1402.2464 0.0000 0.0000 1737.5367 -7336.3631 299.6978 -9073.8998 -7376.0472 299.3800 -13.2083 18.1294 30173.9706 16.3698 81.4729
TCL: Running FEP window  16: Lambda1 0.7500000000000001 Lambda2 0.8000000000000002 [dLambda 0.050000000000000044]
TCL: Setting parameter firsttimestep to 0
TCL: Setting parameter alchLambda to 0.7500000000000001
Info: NONBONDED TABLE R-SQUARED SPACING: 0.0625
Info: NONBONDED TABLE SIZE: 705 POINTS
TCL: Setting parameter alchLambda2 to 0.8000000000000002
Info: NONBONDED TABLE R-SQUARED SPACING: 0.0625
Info: NONBONDED TABLE SIZE: 705 POINTS
TCL: Running for 1500000 steps
ETITLE: TS BOND ANGLE DIHED IMPRP ELECT VDW BOUNDARY MISC KINETIC TOTAL TEMP POTENTIAL TOTALAVG TEMPAVG PRESSURE GPRESSURE VOLUME PRESSAVG GPRESSAVG
ENERGY: 0 0.7661 9.4821 0.6585 0.0000 -10487.0610 1402.9496 0.0000 0.0000 1736.6663 -7336.5384 299.5476 -9073.2047 -7336.5384 299.5476 -49.7794 37.6820 30173.9706 -49.7794 37.6820
ENERGY: 300000 0.3733 6.2480 0.4652 0.0000 -10420.4087 1292.1030 0.0000 0.0000 1763.6112 -7357.6079 304.1952 -9121.2191 -7343.7330 299.7051 -967.6775 -890.7748 30237.7661 -175.2120 -99.2427
ENERGY: 600000 1.0049 6.7367 0.4475 0.0000 -10585.7046 1419.4067 0.0000 0.0000 1739.7078 -7418.4010 300.0723 -9158.1088 -7360.7192 299.4867 13.9456 114.1154 29628.1406 -124.9652 -51.9813
ENERGY: 900000 0.6483 6.4242 0.6501 0.0000 -10550.9894 1476.8732 0.0000 0.0000 1691.7492 -7374.6444 291.8002 -9066.3936 -7367.1605 298.4180 676.4393 734.6246 29780.9763 -91.1545 -20.7906
ENERGY: 1200000 1.0005 9.9158 0.3776 0.0000 -10575.3223 1435.3684 0.0000 0.0000 1726.5217 -7402.1382 297.7979 -9128.6600 -7382.2728 298.2136 234.6992 296.7901 29722.6541 -105.7560 -41.9833
ENERGY: 1500000 2.3521 8.6421 0.3160 0.0000 -10454.0091 1348.2524 0.0000 0.0000 1740.7242 -7353.7223 300.2476 -9094.4465 -7386.1092 297.8190 -435.6249 -372.0454 29887.7845 -66.5004 -8.0927
TCL: Running FEP window  17: Lambda1 0.8000000000000002 Lambda2 0.8500000000000002 [dLambda 0.050000000000000044]
TCL: Setting parameter firsttimestep to 0
TCL: Setting parameter alchLambda to 0.8000000000000002
Info: NONBONDED TABLE R-SQUARED SPACING: 0.0625
Info: NONBONDED TABLE SIZE: 705 POINTS
TCL: Setting parameter alchLambda2 to 0.8500000000000002
Info: NONBONDED TABLE R-SQUARED SPACING: 0.0625
Info: NONBONDED TABLE SIZE: 705 POINTS
TCL: Running for 1500000 steps
ETITLE: TS BOND ANGLE DIHED IMPRP ELECT VDW BOUNDARY MISC KINETIC TOTAL TEMP POTENTIAL TOTALAVG TEMPAVG PRESSURE GPRESSURE VOLUME PRESSAVG GPRESSAVG
ENERGY: 0 2.3521 8.6421 0.3160 0.0000 -10453.9989 1348.3116 0.0000 0.0000 1739.8554 -7354.5217 300.0977 -9094.3770 -7354.5217 300.0977 -441.6047 -362.0108 29887.7845 -441.6047 -362.0108
ENERGY: 300000 2.4634 7.5979 0.2811 0.0000 -10591.8078 1413.9310 0.0000 0.0000 1788.4637 -7379.0707 308.4819 -9167.5344 -7394.5532 299.0098 -35.8434 5.1062 29601.9626 -65.6436 -18.9668
ENERGY: 600000 0.9936 9.7648 1.4572 0.0000 -10383.6666 1356.7828 0.0000 0.0000 1784.3508 -7230.3173 307.7725 -9014.6681 -7370.4029 301.8382 -208.9732 -100.6670 30171.6518 -27.8978 29.2477
ENERGY: 900000 0.5268 7.7037 0.2193 0.0000 -10606.9983 1511.2730 0.0000 0.0000 1743.9285 -7343.3471 300.8003 -9087.2756 -7365.9198 300.3811 726.0074 797.6568 30101.5162 6.9271 64.6280
ENERGY: 1200000 1.6184 7.2158 1.1870 0.0000 -10575.6766 1440.2143 0.0000 0.0000 1772.0254 -7353.4157 305.6465 -9125.4411 -7359.2453 300.9751 83.2951 117.3561 30199.5643 44.7452 97.7414
ENERGY: 1500000 1.9397 7.4848 0.7633 0.0000 -10553.8372 1396.1590 0.0000 0.0000 1732.1686 -7415.3216 298.7719 -9147.4902 -7359.7336 301.1130 -458.8238 -419.3013 30667.4218 -55.1614 -3.5576
TCL: Running FEP window  18: Lambda1 0.8500000000000002 Lambda2 0.9000000000000002 [dLambda 0.050000000000000044]
TCL: Setting parameter firsttimestep to 0
TCL: Setting parameter alchLambda to 0.8500000000000002
Info: NONBONDED TABLE R-SQUARED SPACING: 0.0625
Info: NONBONDED TABLE SIZE: 705 POINTS
TCL: Setting parameter alchLambda2 to 0.9000000000000002
Info: NONBONDED TABLE R-SQUARED SPACING: 0.0625
Info: NONBONDED TABLE SIZE: 705 POINTS
TCL: Running for 1500000 steps
ETITLE: TS BOND ANGLE DIHED IMPRP ELECT VDW BOUNDARY MISC KINETIC TOTAL TEMP POTENTIAL TOTALAVG TEMPAVG PRESSURE GPRESSURE VOLUME PRESSAVG GPRESSAVG
ENERGY: 0 1.9397 7.4848 0.7633 0.0000 -10553.8300 1395.7726 0.0000 0.0000 1731.2952 -7416.5743 298.6212 -9147.8695 -7416.5743 298.6212 -493.5341 -414.9525 30667.4218 -493.5341 -414.9525
ENERGY: 300000 0.9354 9.5805 0.6449 0.0000 -10444.4928 1388.7401 0.0000 0.0000 1731.9493 -7312.6427 298.7340 -9044.5919 -7390.3184 295.8130 -254.1265 -202.8804 30357.4801 -312.8907 -245.9000
ENERGY: 600000 2.6215 7.6587 1.1008 0.0000 -10536.2420 1400.6410 0.0000 0.0000 1731.6191 -7392.6008 298.6771 -9124.2199 -7389.3861 296.6881 -18.1146 82.6588 29854.2763 -133.8910 -67.1484
ENERGY: 900000 0.2307 7.9480 0.3987 0.0000 -10540.9560 1369.1108 0.0000 0.0000 1725.0695 -7438.1982 297.5474 -9163.2677 -7402.0154 296.8382 -15.4765 52.3872 29327.5688 -64.5781 -2.1771
ENERGY: 1200000 1.9202 6.5178 0.4928 0.0000 -10587.9107 1429.3487 0.0000 0.0000 1748.2600 -7401.3711 301.5474 -9149.6311 -7394.4157 297.6466 -58.2119 34.4445 29929.6180 -86.4784 -23.2067
ENERGY: 1500000 1.4986 9.9702 0.4363 0.0000 -10428.7518 1363.0564 0.0000 0.0000 1732.9382 -7320.8521 298.9046 -9053.7903 -7384.1851 298.6127 -220.1650 -187.8952 30207.8911 20.7439 81.6663
TCL: Running FEP window  19: Lambda1 0.9000000000000002 Lambda2 0.9500000000000003 [dLambda 0.050000000000000044]
TCL: Setting parameter firsttimestep to 0
TCL: Setting parameter alchLambda to 0.9000000000000002
Info: NONBONDED TABLE R-SQUARED SPACING: 0.0625
Info: NONBONDED TABLE SIZE: 705 POINTS
TCL: Setting parameter alchLambda2 to 0.9500000000000003
Info: NONBONDED TABLE R-SQUARED SPACING: 0.0625
Info: NONBONDED TABLE SIZE: 705 POINTS
TCL: Running for 1500000 steps
ETITLE: TS BOND ANGLE DIHED IMPRP ELECT VDW BOUNDARY MISC KINETIC TOTAL TEMP POTENTIAL TOTALAVG TEMPAVG PRESSURE GPRESSURE VOLUME PRESSAVG GPRESSAVG
ENERGY: 0 1.4986 9.9702 0.4363 0.0000 -10428.7365 1364.1314 0.0000 0.0000 1732.0840 -7320.6160 298.7573 -9052.7000 -7320.6160 298.7573 -255.1592 -163.6218 30207.8911 -255.1592 -163.6218
ENERGY: 300000 0.7831 9.6167 2.4594 0.0000 -10523.7121 1439.6451 0.0000 0.0000 1727.3668 -7343.8409 297.9436 -9071.2077 -7378.5527 299.4276 83.6623 133.3681 30545.0837 -71.4025 3.3809
ENERGY: 600000 0.7932 13.0674 0.8650 0.0000 -10545.3813 1433.6772 0.0000 0.0000 1728.2698 -7368.7087 298.0994 -9096.9785 -7361.2546 302.2947 561.9705 636.6975 29534.2327 -14.3023 63.4678
ENERGY: 900000 0.4658 6.9696 1.0414 0.0000 -10490.6179 1385.0528 0.0000 0.0000 1734.0083 -7363.0800 299.0892 -9097.0883 -7363.0663 300.4462 -217.6738 -154.8687 30125.8456 -152.8231 -81.9026
ENERGY: 1200000 3.1064 4.5952 0.8475 0.0000 -10616.1763 1454.1390 0.0000 0.0000 1791.5242 -7361.9641 309.0098 -9153.4882 -7369.7173 300.9028 310.6023 384.9883 29832.1643 -157.0944 -94.8143
ENERGY: 1500000 2.9862 7.7614 0.6316 0.0000 -10547.9955 1459.8653 0.0000 0.0000 1712.5235 -7364.2274 295.3834 -9076.7509 -7354.8450 301.4761 632.8459 675.7776 29650.7759 -84.8438 -18.7702
TCL: Running FEP window  20: Lambda1 0.9500000000000003 Lambda2 1.0    [dLambda 0.04999999999999971]
TCL: Setting parameter firsttimestep to 0
TCL: Setting parameter alchLambda to 0.9500000000000003
Info: NONBONDED TABLE R-SQUARED SPACING: 0.0625
Info: NONBONDED TABLE SIZE: 705 POINTS
TCL: Setting parameter alchLambda2 to 1.0
Info: NONBONDED TABLE R-SQUARED SPACING: 0.0625
Info: NONBONDED TABLE SIZE: 705 POINTS
TCL: Running for 1500000 steps
ETITLE: TS BOND ANGLE DIHED IMPRP ELECT VDW BOUNDARY MISC KINETIC TOTAL TEMP POTENTIAL TOTALAVG TEMPAVG PRESSURE GPRESSURE VOLUME PRESSAVG GPRESSAVG
ENERGY: 0 2.9862 7.7614 0.6316 0.0000 -10548.0030 1459.7812 0.0000 0.0000 1711.6721 -7365.1705 295.2365 -9076.8426 -7365.1705 295.2365 628.2520 687.7224 29650.7759 628.2520 687.7224
ENERGY: 300000 0.4137 8.1094 0.7244 0.0000 -10609.4811 1445.4917 0.0000 0.0000 1768.1262 -7386.6157 304.9740 -9154.7419 -7356.9403 303.6406 306.8797 332.9323 30008.4663 279.8175 308.7644
ENERGY: 600000 3.2399 8.5923 1.3447 0.0000 -10614.8414 1412.3410 0.0000 0.0000 1743.4403 -7445.8832 300.7160 -9189.3235 -7365.3564 303.6944 -486.4122 -419.4410 30345.6911 51.8847 102.1750
ENERGY: 900000 0.6688 8.8585 2.5368 0.0000 -10480.9124 1354.9401 0.0000 0.0000 1728.3645 -7385.5436 298.1157 -9113.9082 -7364.4282 302.8663 -575.0436 -481.7722 30254.9834 17.1793 78.8394
ENERGY: 1200000 0.5257 13.9005 1.0497 0.0000 -10575.9479 1406.9011 0.0000 0.0000 1656.8847 -7496.6862 285.7866 -9153.5710 -7382.9928 301.3120 -197.6264 -120.5117 29961.7292 78.6636 136.7635
ENERGY: 1500000 3.8971 9.7715 1.0736 0.0000 -10607.2567 1443.6765 0.0000 0.0000 1719.2240 -7429.6141 296.5391 -9148.8380 -7388.0550 301.2820 161.9081 219.8260 30040.3742 76.8083 138.7285
TCL: Exiting due to exit command.
