Info: SIMULATION PARAMETERS:
Info: TIMESTEP               2
Info: NUMBER OF STEPS        0
Info: STEPS PER CYCLE        10
Info: PERIODIC CELL BASIS 1  30.9202 0 0
Info: PERIODIC CELL BASIS 2  0 30.6639 0
Info: PERIODIC CELL BASIS 3  0 0 31.9922
Info: PERIODIC CELL CENTER   0 0 0
Info: WRAPPING WATERS AROUND PERIODIC BOUNDARIES ON OUTPUT.
Info: WRAPPING ALL CLUSTERS AROUND PERIODIC BOUNDARIES ON OUTPUT.
Info: FIRST LDB TIMESTEP     50
Info: LAST LDB TIMESTEP     -1
Info: HOM BACKGROUND SCALING 1
Info: PME BACKGROUND SCALING 1
Info: MIN ATOMS PER PATCH    40
Info: EMPTY PATCH LOAD       40 ATOMS
Info: VELOCITY FILE          mobley_1893815_equil.vel
Info: CENTER OF MASS MOVING INITIALLY? NO
Info: DIELECTRIC             1
Info: EXCLUDE                SCALED ONE-FOUR
Info: 1-4 ELECTROSTATICS SCALED BY 0.833333
Info: MODIFIED 1-4 VDW PARAMETERS WILL BE USED
Info: DCD FILENAME           mobley_1893815_prod.dcd
Info: DCD FREQUENCY          100000
Info: DCD FIRST STEP         100000
Info: DCD FILE WILL CONTAIN UNIT CELL DATA
Info: XST FILENAME           mobley_1893815_prod.xst
Info: XST FREQUENCY          100000
Info: NO VELOCITY DCD OUTPUT
Info: NO FORCE DCD OUTPUT
Info: OUTPUT FILENAME        mobley_1893815_prod
Info: BINARY OUTPUT FILES WILL BE USED
Info: RESTART FILENAME       mobley_1893815_prod.restart
Info: RESTART FREQUENCY      100000
Info: BINARY RESTART FILES WILL BE USED
Info: CUTOFF                 9
Info: PAIRLIST DISTANCE      11
Info: PAIRLIST SHRINK RATE   0.01
Info: PAIRLIST GROW RATE     0.01
Info: PAIRLIST TRIGGER       0.3
Info: PAIRLISTS PER CYCLE    2
Info: PAIRLISTS ENABLED
Info: MARGIN                 2
Info: HYDROGEN GROUP CUTOFF  2.5
Info: PATCH DIMENSION        15.5
Info: ENERGY OUTPUT STEPS    100000
Info: ENERGY EVALUATION STEPS    100000
Info: OUTPUT ENERGY PRECISION 4
Info: CROSSTERM ENERGY INCLUDED IN DIHEDRAL
Info: TIMING OUTPUT STEPS    1000000
Info: PRESSURE OUTPUT STEPS  100000
Info: ALCHEMICAL FEP ON
Info: FEP CURRENT LAMBDA VALUE     1
Info: FEP COMPARISON LAMBDA VALUE  0.95
Info: FEP INTRA-ALCHEMICAL NON-BONDED INTERACTIONS WILL BE RETAINED
Info: FEP INTRA-ALCHEMICAL BONDED INTERACTIONS WILL BE RETAINED
Info: FEP VDW SHIFTING COEFFICIENT 5
Info: FEP ELEC. ACTIVE FOR ANNIHILATED PARTICLES BETWEEN LAMBDA = 0 AND LAMBDA = 0.5
Info: FEP ELEC. ACTIVE FOR EXNIHILATED PARTICLES BETWEEN LAMBDA = 0.5 AND LAMBDA = 1
Info: FEP VDW ACTIVE FOR ANNIHILATED PARTICLES BETWEEN LAMBDA = 0 AND LAMBDA = 1
Info: FEP VDW ACTIVE FOR EXNIHILATED PARTICLES BETWEEN LAMBDA = 0 AND LAMBDA = 1
Info: FEP BOND ACTIVE FOR ANNIHILATED PARTICLES BETWEEN LAMBDA = 1 AND LAMBDA = 1
Info: FEP BOND ACTIVE FOR EXNIHILATED PARTICLES BETWEEN LAMBDA = 0 AND LAMBDA = 0
Info: LANGEVIN DYNAMICS ACTIVE
Info: LANGEVIN TEMPERATURE   300
Info: LANGEVIN USING BBK INTEGRATOR
Info: LANGEVIN DAMPING COEFFICIENT IS 1 INVERSE PS
Info: LANGEVIN DYNAMICS APPLIED TO HYDROGENS
Info: LANGEVIN PISTON PRESSURE CONTROL ACTIVE
Info:        TARGET PRESSURE IS 1.01325 BAR
Info:     OSCILLATION PERIOD IS 50 FS
Info:             DECAY TIME IS 25 FS
Info:     PISTON TEMPERATURE IS 300 K
Info:       PRESSURE CONTROL IS GROUP-BASED
Info:    INITIAL STRAIN RATE IS 8.2511e-06 8.2511e-06 8.2511e-06
Info:       CELL FLUCTUATION IS ISOTROPIC
Info: PARTICLE MESH EWALD (PME) ACTIVE
Info: PME TOLERANCE               1e-06
Info: PME EWALD COEFFICIENT       0.348832
Info: PME INTERPOLATION ORDER     4
Info: PME GRID DIMENSIONS         32 32 32
Info: PME MAXIMUM GRID SPACING    1
Info: PME CALCULATION WILL BE PERFORMED ON GPU
Info: FULL ELECTROSTATIC EVALUATION FREQUENCY      2
Info: USING VERLET I (r-RESPA) MTS SCHEME.
Info: C1 SPLITTING OF LONG RANGE ELECTROSTATICS
Info: PLACING ATOMS IN PATCHES BY HYDROGEN GROUPS
Info: RIGID BONDS TO HYDROGEN : ALL
Info:         ERROR TOLERANCE : 1e-08
Info:          MAX ITERATIONS : 100
Info: RIGID WATER USING SETTLE ALGORITHM
Info: RANDOM NUMBER SEED     1742100117
Info: USE HYDROGEN BONDS?    NO
Info: Using AMBER format force field!
Info: AMBER PARM FILE        mobley_1893815.prmtop
Info: COORDINATE PDB         mobley_1893815.pdb
Info: Exclusions will be read from PARM file!
Info: SCNB (VDW SCALING)     2
Info: USING ARITHMETIC MEAN TO COMBINE L-J SIGMA PARAMETERS
Info: BINARY COORDINATES     mobley_1893815_equil.coor
Info: SUMMARY OF PARAMETERS:
Info: 5 BONDS
Info: 5 ANGLES
Info:   5 HARMONIC
Info:   0 COSINE-BASED
Info: 3 DIHEDRAL
Info: 0 IMPROPER
Info: 0 CROSSTERM
Info: 0 VDW
Info: 15 VDW_PAIRS
Info: 0 NBTHOLE_PAIRS
Info: To read alchdata from file: mobley_1893815.pdb
Info: To read alchflag data from column: 5
Info: STRUCTURE SUMMARY:
Info: 2948 ATOMS
Info: 2947 BONDS
Info: 12 ANGLES
Info: 15 DIHEDRALS
Info: 0 IMPROPERS
Info: 0 CROSSTERMS
Info: 2968 EXCLUSIONS
Info: 2942 RIGID BONDS
Info: ALCH: 0 ATOMS TO DISAPPEAR IN FINAL STATE
Info: ALCH: 8 ATOMS TO APPEAR IN FINAL STATE
Info: 5902 DEGREES OF FREEDOM
Info: 986 HYDROGEN GROUPS
Info: 3 ATOMS IN LARGEST HYDROGEN GROUP
Info: 986 MIGRATION GROUPS
Info: 3 ATOMS IN LARGEST MIGRATION GROUP
Info: TOTAL MASS = 17823.5 amu
Info: TOTAL CHARGE = -0.00010001 e
Info: MASS DENSITY = 0.975752 g/cm^3
Info: ATOM DENSITY = 0.0971884 atoms/A^3
Info: ADDED 0 IMPLICIT EXCLUSIONS
Info: NONBONDED TABLE R-SQUARED SPACING: 0.0625
Info: NONBONDED TABLE SIZE: 705 POINTS
Info: REMOVING COM VELOCITY -0.0300805 0.0477062 0.0470527
Info: Use 3D box decompostion in PME FFT.
Info: Updated CUDA force table with 4096 elements.
Info: Updated CUDA LJ table with 5 x 5 elements.
Info: Found 11 unique exclusion lists needing 16 bytes
TCL: Running for 1500000 steps
ETITLE: TS BOND ANGLE DIHED IMPRP ELECT VDW BOUNDARY MISC KINETIC TOTAL TEMP POTENTIAL TOTALAVG TEMPAVG PRESSURE GPRESSURE VOLUME PRESSAVG GPRESSAVG
ENERGY: 0 0.9411 2.9372 1.5539 0.0000 -10802.5426 1455.4669 0.0000 0.0000 1774.3961 -7567.2475 302.5811 -9341.6436 -7567.2475 302.5811 -37.3016 35.3058 30332.8411 -37.3016 35.3058
ENERGY: 300000 0.9821 3.6314 2.2072 0.0000 -10714.5207 1473.8420 0.0000 0.0000 1796.0649 -7437.7931 306.2762 -9233.8580 -7520.6707 302.0402 234.4908 328.8686 30574.6387 -191.0663 -137.0806
ENERGY: 600000 0.6581 4.3216 1.9237 0.0000 -10614.0328 1351.0859 0.0000 0.0000 1760.9273 -7495.1163 300.2843 -9256.0436 -7516.3130 300.7914 -757.2620 -683.6594 30766.6058 -266.1659 -196.1161
ENERGY: 900000 1.0481 6.6345 1.8636 0.0000 -10744.2500 1463.5197 0.0000 0.0000 1712.9325 -7558.2516 292.0999 -9271.1841 -7516.2063 299.9882 78.1264 130.9081 30830.8824 -90.1741 -19.7179
ENERGY: 1200000 0.9693 2.3746 1.5275 0.0000 -10585.2133 1365.5969 0.0000 0.0000 1764.7001 -7450.0448 300.9276 -9214.7449 -7512.4025 301.3440 -205.4457 -220.5068 30511.6598 -84.2844 -21.6311
ENERGY: 1500000 1.6755 1.3898 1.9184 0.0000 -10883.3334 1556.4291 0.0000 0.0000 1739.1245 -7582.7961 296.5663 -9321.9207 -7516.6375 300.3369 868.1228 908.9919 30079.9442 -116.8782 -54.1447
TCL: Running FEP window   2: Lambda1 0.95   Lambda2 0.8999999999999999 [dLambda -0.050000000000000044]
TCL: Setting parameter firsttimestep to 0
TCL: Setting parameter alchLambda to 0.95
Info: NONBONDED TABLE R-SQUARED SPACING: 0.0625
Info: NONBONDED TABLE SIZE: 705 POINTS
TCL: Setting parameter alchLambda2 to 0.8999999999999999
Info: NONBONDED TABLE R-SQUARED SPACING: 0.0625
Info: NONBONDED TABLE SIZE: 705 POINTS
TCL: Running for 1500000 steps
ETITLE: TS BOND ANGLE DIHED IMPRP ELECT VDW BOUNDARY MISC KINETIC TOTAL TEMP POTENTIAL TOTALAVG TEMPAVG PRESSURE GPRESSURE VOLUME PRESSAVG GPRESSAVG
ENERGY: 0 1.6755 1.3898 1.9184 0.0000 -10882.9722 1556.3028 0.0000 0.0000 1738.2685 -7583.4173 296.4204 -9321.6857 -7583.4173 296.4204 811.0729 893.8242 30079.9442 811.0729 893.8242
ENERGY: 300000 1.2357 2.7704 1.6050 0.0000 -10437.5523 1272.4306 0.0000 0.0000 1760.1030 -7399.4076 300.1437 -9159.5105 -7501.8950 297.1414 -1163.0818 -1115.3194 31108.2703 -243.7330 -192.1055
ENERGY: 600000 5.7943 1.9746 1.5324 0.0000 -10835.0574 1445.0373 0.0000 0.0000 1725.5872 -7655.1317 294.2579 -9380.7188 -7522.5050 298.1184 -240.8419 -134.3865 30072.0126 -281.8234 -214.7483
ENERGY: 900000 0.3058 1.2771 1.7437 0.0000 -10826.0412 1524.8543 0.0000 0.0000 1750.3196 -7547.5406 298.4754 -9297.8603 -7513.9056 298.7622 982.6151 1040.0581 29889.1143 -200.5444 -141.5788
ENERGY: 1200000 1.7842 3.4550 2.0889 0.0000 -10947.1012 1524.1560 0.0000 0.0000 1762.9330 -7652.6841 300.6263 -9415.6172 -7523.7184 298.4900 404.1019 430.5931 30004.9853 -160.2017 -92.4832
ENERGY: 1500000 0.8299 5.7447 1.7196 0.0000 -10567.0680 1380.2038 0.0000 0.0000 1741.7996 -7436.7704 297.0225 -9178.5701 -7516.8674 298.5826 -209.2857 -163.1633 30652.5262 -175.8472 -108.2914
TCL: Running FEP window   3: Lambda1 0.8999999999999999 Lambda2 0.8499999999999999 [dLambda -0.050000000000000044]
TCL: Setting parameter firsttimestep to 0
TCL: Setting parameter alchLambda to 0.8999999999999999
Info: NONBONDED TABLE R-SQUARED SPACING: 0.0625
Info: NONBONDED TABLE SIZE: 705 POINTS
TCL: Setting parameter alchLambda2 to 0.8499999999999999
Info: NONBONDED TABLE R-SQUARED SPACING: 0.0625
Info: NONBONDED TABLE SIZE: 705 POINTS
TCL: Running for 1500000 steps
ETITLE: TS BOND ANGLE DIHED IMPRP ELECT VDW BOUNDARY MISC KINETIC TOTAL TEMP POTENTIAL TOTALAVG TEMPAVG PRESSURE GPRESSURE VOLUME PRESSAVG GPRESSAVG
ENERGY: 0 0.8299 5.7447 1.7196 0.0000 -10566.9486 1380.8922 0.0000 0.0000 1740.9162 -7436.8461 296.8719 -9177.7623 -7436.8461 296.8719 -248.8428 -167.9981 30652.5262 -248.8428 -167.9981
ENERGY: 300000 1.4528 5.7189 1.5711 0.0000 -10632.6569 1376.9159 0.0000 0.0000 1798.9509 -7448.0472 306.7683 -9246.9982 -7496.8223 300.0387 -433.9795 -378.8762 30561.9279 63.2919 123.0718
ENERGY: 600000 2.6309 1.6391 1.6525 0.0000 -10743.0127 1491.1643 0.0000 0.0000 1747.6011 -7498.3248 298.0118 -9245.9259 -7512.9746 298.4857 655.6070 716.0347 30138.7679 107.4891 157.3151
ENERGY: 900000 0.8790 3.4123 1.7758 0.0000 -10554.3816 1354.3766 0.0000 0.0000 1752.0801 -7441.8578 298.7756 -9193.9378 -7492.1597 299.9293 -753.1056 -701.7301 31157.2120 178.3620 225.1835
ENERGY: 1200000 3.0080 2.8600 2.1681 0.0000 -10783.6464 1473.1642 0.0000 0.0000 1704.1943 -7598.2518 290.6098 -9302.4460 -7507.3596 299.3946 169.6428 198.5204 30285.8885 97.4221 144.7421
ENERGY: 1500000 1.2056 3.6885 1.8626 0.0000 -10833.7075 1537.3235 0.0000 0.0000 1789.9452 -7499.6822 305.2326 -9289.6273 -7503.7278 300.4752 534.5829 687.6324 30647.0393 118.5756 170.8356
TCL: Running FEP window   4: Lambda1 0.8499999999999999 Lambda2 0.7999999999999998 [dLambda -0.050000000000000044]
TCL: Setting parameter firsttimestep to 0
TCL: Setting parameter alchLambda to 0.8499999999999999
Info: NONBONDED TABLE R-SQUARED SPACING: 0.0625
Info: NONBONDED TABLE SIZE: 705 POINTS
TCL: Setting parameter alchLambda2 to 0.7999999999999998
Info: NONBONDED TABLE R-SQUARED SPACING: 0.0625
Info: NONBONDED TABLE SIZE: 705 POINTS
TCL: Running for 1500000 steps
ETITLE: TS BOND ANGLE DIHED IMPRP ELECT VDW BOUNDARY MISC KINETIC TOTAL TEMP POTENTIAL TOTALAVG TEMPAVG PRESSURE GPRESSURE VOLUME PRESSAVG GPRESSAVG
ENERGY: 0 1.2056 3.6885 1.8626 0.0000 -10833.3824 1537.0509 0.0000 0.0000 1789.0520 -7500.5228 305.0803 -9289.5748 -7500.5228 305.0803 586.9406 676.2034 30647.0393 586.9406 676.2034
ENERGY: 300000 1.6968 3.1215 1.8993 0.0000 -10661.0519 1388.5026 0.0000 0.0000 1735.4446 -7530.3871 295.9388 -9265.8317 -7497.1301 302.0952 -319.4015 -283.6078 30326.0645 215.6488 304.6668
ENERGY: 600000 2.0467 2.7746 1.5668 0.0000 -10631.7612 1409.5116 0.0000 0.0000 1819.3703 -7396.4911 310.2504 -9215.8614 -7464.9686 303.2545 -267.6603 -215.4229 30730.2016 180.6261 261.5883
ENERGY: 900000 0.9670 2.4539 1.8090 0.0000 -10699.9847 1432.4701 0.0000 0.0000 1767.3296 -7494.9552 301.3760 -9262.2847 -7459.3645 303.1853 28.2511 107.1838 30309.3927 145.6249 220.9657
ENERGY: 1200000 5.9566 3.5976 1.7823 0.0000 -10557.3690 1396.1898 0.0000 0.0000 1724.2593 -7425.5833 294.0314 -9149.8427 -7471.5054 301.2304 106.9829 226.4943 30307.4507 90.3884 164.2346
ENERGY: 1500000 1.1485 1.5291 1.8387 0.0000 -10838.0316 1473.1941 0.0000 0.0000 1693.9896 -7666.3316 288.8696 -9360.3212 -7483.2622 299.8168 51.7360 121.1725 30230.0224 91.9925 168.3594
TCL: Running FEP window   5: Lambda1 0.7999999999999998 Lambda2 0.7499999999999998 [dLambda -0.050000000000000044]
TCL: Setting parameter firsttimestep to 0
TCL: Setting parameter alchLambda to 0.7999999999999998
Info: NONBONDED TABLE R-SQUARED SPACING: 0.0625
Info: NONBONDED TABLE SIZE: 705 POINTS
TCL: Setting parameter alchLambda2 to 0.7499999999999998
Info: NONBONDED TABLE R-SQUARED SPACING: 0.0625
Info: NONBONDED TABLE SIZE: 705 POINTS
TCL: Running for 1500000 steps
ETITLE: TS BOND ANGLE DIHED IMPRP ELECT VDW BOUNDARY MISC KINETIC TOTAL TEMP POTENTIAL TOTALAVG TEMPAVG PRESSURE GPRESSURE VOLUME PRESSAVG GPRESSAVG
ENERGY: 0 1.1485 1.5291 1.8387 0.0000 -10837.7064 1473.3228 0.0000 0.0000 1693.1136 -7666.7537 288.7203 -9359.8673 -7666.7537 288.7203 29.4152 115.9477 30230.0224 29.4152 115.9477
ENERGY: 300000 0.5697 5.7888 1.6614 0.0000 -10594.3233 1332.4008 0.0000 0.0000 1748.0257 -7505.8771 298.0842 -9253.9028 -7529.9921 298.8904 -866.4279 -790.5030 30694.5219 -409.2278 -355.9526
ENERGY: 600000 1.2020 3.8802 1.5815 0.0000 -10784.1002 1438.5749 0.0000 0.0000 1759.6133 -7579.2483 300.0602 -9338.8617 -7521.7994 300.6270 -86.7613 -53.2950 30184.1952 -341.4809 -285.6165
ENERGY: 900000 2.0649 0.8554 1.6219 0.0000 -10798.3337 1476.4757 0.0000 0.0000 1746.4558 -7570.8599 297.8165 -9317.3158 -7510.0312 301.2411 287.0695 320.7056 30182.2581 -175.8535 -120.5269
ENERGY: 1200000 0.7484 3.1801 1.5038 0.0000 -10730.2945 1493.3997 0.0000 0.0000 1768.8140 -7462.6485 301.6292 -9231.4625 -7502.4782 301.6121 576.3075 655.6555 29949.6355 -110.9079 -44.4565
ENERGY: 1500000 1.9394 5.9000 1.5160 0.0000 -10661.4286 1388.5525 0.0000 0.0000 1795.8736 -7467.6471 306.2435 -9263.5207 -7509.3271 301.0676 -435.3947 -386.6957 30669.6332 -81.3634 -17.9813
TCL: Running FEP window   6: Lambda1 0.7499999999999998 Lambda2 0.6999999999999997 [dLambda -0.050000000000000044]
TCL: Setting parameter firsttimestep to 0
TCL: Setting parameter alchLambda to 0.7499999999999998
Info: NONBONDED TABLE R-SQUARED SPACING: 0.0625
Info: NONBONDED TABLE SIZE: 705 POINTS
TCL: Setting parameter alchLambda2 to 0.6999999999999997
Info: NONBONDED TABLE R-SQUARED SPACING: 0.0625
Info: NONBONDED TABLE SIZE: 705 POINTS
TCL: Running for 1500000 steps
ETITLE: TS BOND ANGLE DIHED IMPRP ELECT VDW BOUNDARY MISC KINETIC TOTAL TEMP POTENTIAL TOTALAVG TEMPAVG PRESSURE GPRESSURE VOLUME PRESSAVG GPRESSAVG
ENERGY: 0 1.9394 5.9000 1.5160 0.0000 -10661.1248 1389.0012 0.0000 0.0000 1794.9651 -7467.8030 306.0886 -9262.7682 -7467.8030 306.0886 -478.9617 -387.9413 30669.6332 -478.9617 -387.9413
ENERGY: 300000 1.3734 2.9369 1.5406 0.0000 -10704.1733 1381.7323 0.0000 0.0000 1795.0652 -7521.5250 306.1057 -9316.5902 -7459.2534 304.1073 -651.7093 -596.2858 30376.6236 -188.4529 -110.8736
ENERGY: 600000 1.0325 3.7955 2.2537 0.0000 -10547.7705 1332.3345 0.0000 0.0000 1791.7889 -7416.5655 305.5470 -9208.3543 -7465.6794 302.4810 -823.3238 -723.7629 30854.9330 -242.6997 -170.0632
ENERGY: 900000 0.9300 1.3447 1.6593 0.0000 -10686.5293 1438.7380 0.0000 0.0000 1786.4355 -7457.4217 304.6341 -9243.8573 -7473.9220 301.9214 -33.1470 12.4445 30643.9785 -143.8701 -73.4763
ENERGY: 1200000 0.3490 4.6009 1.8642 0.0000 -10694.8658 1442.3682 0.0000 0.0000 1751.6517 -7494.0319 298.7025 -9245.6836 -7487.9908 301.4828 102.6975 151.5664 30375.2754 -112.8542 -43.0422
ENERGY: 1500000 3.1680 4.5713 1.6902 0.0000 -10800.8531 1511.2891 0.0000 0.0000 1773.1386 -7506.9958 302.3666 -9280.1344 -7492.5360 300.5963 604.6359 729.7050 29898.2240 -102.3365 -35.8680
TCL: Running FEP window   7: Lambda1 0.6999999999999997 Lambda2 0.6499999999999997 [dLambda -0.050000000000000044]
TCL: Setting parameter firsttimestep to 0
TCL: Setting parameter alchLambda to 0.6999999999999997
Info: NONBONDED TABLE R-SQUARED SPACING: 0.0625
Info: NONBONDED TABLE SIZE: 705 POINTS
TCL: Setting parameter alchLambda2 to 0.6499999999999997
Info: NONBONDED TABLE R-SQUARED SPACING: 0.0625
Info: NONBONDED TABLE SIZE: 705 POINTS
TCL: Running for 1500000 steps
ETITLE: TS BOND ANGLE DIHED IMPRP ELECT VDW BOUNDARY MISC KINETIC TOTAL TEMP POTENTIAL TOTALAVG TEMPAVG PRESSURE GPRESSURE VOLUME PRESSAVG GPRESSAVG
ENERGY: 0 3.1680 4.5713 1.6902 0.0000 -10800.8106 1511.6423 0.0000 0.0000 1772.2878 -7507.4510 302.2215 -9279.7388 -7507.4510 302.2215 658.5449 728.2792 29898.2240 658.5449 728.2792
ENERGY: 300000 2.8179 2.5435 1.5943 0.0000 -10613.9480 1400.8111 0.0000 0.0000 1696.2803 -7509.9009 289.2603 -9206.1812 -7506.6659 298.9482 -298.4184 -282.4110 30697.3044 -17.5419 42.7223
ENERGY: 600000 1.6808 1.3398 1.7398 0.0000 -10778.0205 1495.2297 0.0000 0.0000 1707.1712 -7570.8593 291.1175 -9278.0304 -7524.8475 298.4645 311.6586 349.6619 30911.2468 -62.7567 5.7691
ENERGY: 900000 2.3335 3.9080 1.6077 0.0000 -10743.5439 1437.5047 0.0000 0.0000 1746.3283 -7551.8617 297.7948 -9298.1901 -7519.3937 298.2987 -454.3094 -309.6892 30854.1715 -98.8311 -28.3077
ENERGY: 1200000 2.7059 5.2164 2.0806 0.0000 -10804.4830 1480.0316 0.0000 0.0000 1728.3306 -7586.1179 294.7257 -9314.4485 -7519.9092 299.9817 190.5015 246.9316 30277.3837 -86.2604 -11.6170
ENERGY: 1500000 2.2941 2.3626 1.5177 0.0000 -10702.4958 1441.6506 0.0000 0.0000 1700.3678 -7554.3029 289.9573 -9254.6707 -7521.2490 298.7334 -133.1625 -58.1663 30494.3718 -30.6947 44.9948
TCL: Running FEP window   8: Lambda1 0.6499999999999997 Lambda2 0.5999999999999996 [dLambda -0.050000000000000044]
TCL: Setting parameter firsttimestep to 0
TCL: Setting parameter alchLambda to 0.6499999999999997
Info: NONBONDED TABLE R-SQUARED SPACING: 0.0625
Info: NONBONDED TABLE SIZE: 705 POINTS
TCL: Setting parameter alchLambda2 to 0.5999999999999996
Info: NONBONDED TABLE R-SQUARED SPACING: 0.0625
Info: NONBONDED TABLE SIZE: 705 POINTS
TCL: Running for 1500000 steps
ETITLE: TS BOND ANGLE DIHED IMPRP ELECT VDW BOUNDARY MISC KINETIC TOTAL TEMP POTENTIAL TOTALAVG TEMPAVG PRESSURE GPRESSURE VOLUME PRESSAVG GPRESSAVG
ENERGY: 0 2.2941 2.3626 1.5177 0.0000 -10702.3160 1442.0899 0.0000 0.0000 1699.4775 -7554.5741 289.8055 -9254.0516 -7554.5741 289.8055 -146.1270 -61.4427 30494.3718 -146.1270 -61.4427
ENERGY: 300000 4.2431 2.6461 1.8830 0.0000 -10758.4764 1423.8047 0.0000 0.0000 1791.3093 -7534.5902 305.4652 -9325.8995 -7507.4376 297.6768 -349.5415 -266.2051 30405.4678 -208.7288 -160.9388
ENERGY: 600000 1.0916 1.8948 2.6371 0.0000 -10732.6622 1430.6514 0.0000 0.0000 1743.4616 -7552.9257 297.3059 -9296.3873 -7511.1510 297.2942 -214.6999 -122.9132 30504.8500 -357.0824 -292.4139
ENERGY: 900000 0.7958 1.9034 1.5577 0.0000 -10709.2337 1433.9892 0.0000 0.0000 1774.5731 -7496.4146 302.6112 -9270.9877 -7502.1347 297.6041 -316.4712 -294.6264 31083.0689 -345.0003 -283.4212
ENERGY: 1200000 3.3681 2.9830 2.1172 0.0000 -10778.4318 1438.6984 0.0000 0.0000 1747.9230 -7583.3420 298.0667 -9331.2650 -7502.4234 298.4841 71.7673 118.2029 30051.0762 -218.6981 -159.0776
ENERGY: 1500000 1.3456 1.9798 1.5697 0.0000 -10641.2980 1382.6701 0.0000 0.0000 1786.6104 -7467.1224 304.6639 -9253.7328 -7497.7877 299.6122 -643.3566 -563.1402 30886.2577 -265.1324 -202.9901
TCL: Running FEP window   9: Lambda1 0.5999999999999996 Lambda2 0.5499999999999996 [dLambda -0.050000000000000044]
TCL: Setting parameter firsttimestep to 0
TCL: Setting parameter alchLambda to 0.5999999999999996
Info: NONBONDED TABLE R-SQUARED SPACING: 0.0625
Info: NONBONDED TABLE SIZE: 705 POINTS
TCL: Setting parameter alchLambda2 to 0.5499999999999996
Info: NONBONDED TABLE R-SQUARED SPACING: 0.0625
Info: NONBONDED TABLE SIZE: 705 POINTS
TCL: Running for 1500000 steps
ETITLE: TS BOND ANGLE DIHED IMPRP ELECT VDW BOUNDARY MISC KINETIC TOTAL TEMP POTENTIAL TOTALAVG TEMPAVG PRESSURE GPRESSURE VOLUME PRESSAVG GPRESSAVG
ENERGY: 0 1.3456 1.9798 1.5697 0.0000 -10641.1722 1382.8726 0.0000 0.0000 1785.7333 -7467.6712 304.5144 -9253.4044 -7467.6712 304.5144 -651.8232 -567.2816 30886.2577 -651.8232 -567.2816
ENERGY: 300000 0.7940 2.3553 1.6601 0.0000 -10628.3157 1356.7610 0.0000 0.0000 1784.5524 -7482.1929 304.3130 -9266.7453 -7445.2330 306.8633 -635.2294 -563.0321 30340.6862 -364.5759 -293.7720
ENERGY: 600000 1.2344 4.8033 1.5900 0.0000 -10663.8425 1386.8868 0.0000 0.0000 1784.2515 -7485.0765 304.2617 -9269.3280 -7450.9472 305.9698 -495.9768 -420.4168 30443.3962 -438.8880 -372.8706
ENERGY: 900000 1.5100 1.8947 1.5404 0.0000 -10583.1554 1376.4643 0.0000 0.0000 1768.9209 -7432.8250 301.6474 -9201.7459 -7460.2071 304.1654 -197.3137 -80.3326 30129.1558 -341.0313 -261.4036
ENERGY: 1200000 1.3806 2.4757 1.5803 0.0000 -10743.8191 1443.5294 0.0000 0.0000 1760.5535 -7534.2996 300.2205 -9294.8532 -7465.5976 303.4656 89.3281 121.9622 30185.7986 -229.7846 -157.4377
ENERGY: 1500000 0.3270 1.9228 1.8770 0.0000 -10651.4431 1423.6013 0.0000 0.0000 1803.8334 -7419.8816 307.6009 -9223.7150 -7471.0332 303.8174 -52.6628 -47.0560 30492.4329 -150.3512 -88.3260
TCL: Running FEP window  10: Lambda1 0.5499999999999996 Lambda2 0.4999999999999996 [dLambda -0.04999999999999999]
TCL: Setting parameter firsttimestep to 0
TCL: Setting parameter alchLambda to 0.5499999999999996
Info: NONBONDED TABLE R-SQUARED SPACING: 0.0625
Info: NONBONDED TABLE SIZE: 705 POINTS
TCL: Setting parameter alchLambda2 to 0.4999999999999996
Info: NONBONDED TABLE R-SQUARED SPACING: 0.0625
Info: NONBONDED TABLE SIZE: 705 POINTS
TCL: Running for 1500000 steps
ETITLE: TS BOND ANGLE DIHED IMPRP ELECT VDW BOUNDARY MISC KINETIC TOTAL TEMP POTENTIAL TOTALAVG TEMPAVG PRESSURE GPRESSURE VOLUME PRESSAVG GPRESSAVG
ENERGY: 0 0.3270 1.9228 1.8770 0.0000 -10651.2091 1423.8573 0.0000 0.0000 1802.9465 -7420.2785 307.4497 -9223.2250 -7420.2785 307.4497 -156.2537 -49.0170 30492.4329 -156.2537 -49.0170
ENERGY: 300000 2.3259 4.7882 1.9278 0.0000 -10665.4465 1420.9786 0.0000 0.0000 1771.0239 -7464.4022 302.0060 -9235.4261 -7481.6511 301.9480 -19.6941 116.3507 30171.3312 -255.3703 -170.4962
ENERGY: 600000 2.1394 3.2278 1.5623 0.0000 -10793.4127 1501.7956 0.0000 0.0000 1789.8258 -7494.8618 305.2122 -9284.6876 -7465.2033 302.8996 496.1899 521.9501 30321.5198 -138.0097 -70.2696
ENERGY: 900000 0.6981 2.3693 1.7397 0.0000 -10734.5410 1412.4077 0.0000 0.0000 1807.7189 -7509.6073 308.2635 -9317.3262 -7489.8743 301.4218 -358.6611 -145.1884 30177.0417 -68.6078 15.3126
ENERGY: 1200000 1.9779 2.9417 1.5851 0.0000 -10675.6940 1442.4879 0.0000 0.0000 1791.6769 -7435.0245 305.5279 -9226.7013 -7494.7977 301.7572 -123.9494 7.3357 30699.1632 -100.8191 -16.3172
ENERGY: 1500000 0.9444 2.2416 1.6700 0.0000 -10756.3214 1463.7007 0.0000 0.0000 1711.2933 -7576.4714 291.8204 -9287.7647 -7505.1738 300.7774 -178.9815 -97.5238 30839.3591 -97.7936 -12.3554
TCL: Running FEP window  11: Lambda1 0.4999999999999996 Lambda2 0.4499999999999996 [dLambda -0.04999999999999999]
TCL: Setting parameter firsttimestep to 0
TCL: Setting parameter alchLambda to 0.4999999999999996
Info: NONBONDED TABLE R-SQUARED SPACING: 0.0625
Info: NONBONDED TABLE SIZE: 705 POINTS
TCL: Setting parameter alchLambda2 to 0.4499999999999996
Info: NONBONDED TABLE R-SQUARED SPACING: 0.0625
Info: NONBONDED TABLE SIZE: 705 POINTS
TCL: Running for 1500000 steps
ETITLE: TS BOND ANGLE DIHED IMPRP ELECT VDW BOUNDARY MISC KINETIC TOTAL TEMP POTENTIAL TOTALAVG TEMPAVG PRESSURE GPRESSURE VOLUME PRESSAVG GPRESSAVG
ENERGY: 0 0.9444 2.2416 1.6700 0.0000 -10756.3093 1464.2728 0.0000 0.0000 1710.4502 -7576.7302 291.6766 -9287.1805 -7576.7302 291.6766 -187.0776 -98.2754 30839.3591 -187.0776 -98.2754
ENERGY: 300000 4.0697 1.8791 1.8167 0.0000 -10741.4837 1456.0784 0.0000 0.0000 1848.6155 -7429.0243 315.2374 -9277.6398 -7492.0938 304.0966 132.6440 193.3538 30337.2487 65.1337 126.2529
ENERGY: 600000 1.8396 2.0091 1.9710 0.0000 -10642.5643 1407.8188 0.0000 0.0000 1698.9309 -7529.9949 289.7123 -9228.9258 -7503.3529 301.9691 -296.4030 -247.5377 30479.7100 92.9182 151.7269
ENERGY: 900000 1.9261 2.5004 1.9950 0.0000 -10665.2767 1421.4873 0.0000 0.0000 1748.4145 -7488.9534 298.1505 -9237.3679 -7502.3442 301.3184 -106.0546 -36.5197 30360.9168 -15.1735 51.2159
ENERGY: 1200000 2.7168 2.1162 1.5067 0.0000 -10822.7789 1468.4447 0.0000 0.0000 1803.0373 -7544.9572 307.4651 -9347.9945 -7499.3776 302.1159 -16.1466 26.0553 30279.7265 2.2002 71.8989
ENERGY: 1500000 0.4663 2.4813 1.6136 0.0000 -10716.4504 1435.8019 0.0000 0.0000 1787.7641 -7488.3233 304.8607 -9276.0874 -7501.1844 301.6317 99.2958 166.5241 30042.7061 29.7067 95.2545
TCL: Running FEP window  12: Lambda1 0.4499999999999996 Lambda2 0.39999999999999963 [dLambda -0.04999999999999999]
TCL: Setting parameter firsttimestep to 0
TCL: Setting parameter alchLambda to 0.4499999999999996
Info: NONBONDED TABLE R-SQUARED SPACING: 0.0625
Info: NONBONDED TABLE SIZE: 705 POINTS
TCL: Setting parameter alchLambda2 to 0.39999999999999963
Info: NONBONDED TABLE R-SQUARED SPACING: 0.0625
Info: NONBONDED TABLE SIZE: 705 POINTS
TCL: Running for 1500000 steps
ETITLE: TS BOND ANGLE DIHED IMPRP ELECT VDW BOUNDARY MISC KINETIC TOTAL TEMP POTENTIAL TOTALAVG TEMPAVG PRESSURE GPRESSURE VOLUME PRESSAVG GPRESSAVG
ENERGY: 0 0.4663 2.4813 1.6136 0.0000 -10716.4489 1436.4257 0.0000 0.0000 1786.8952 -7488.5669 304.7125 -9275.4621 -7488.5669 304.7125 80.3530 165.0302 30042.7061 80.3530 165.0302
ENERGY: 300000 1.3497 2.5417 2.7490 0.0000 -10645.7364 1480.6176 0.0000 0.0000 1704.9753 -7453.5031 290.7430 -9158.4784 -7478.6924 297.7750 486.2989 593.1435 30480.2069 62.5020 144.1602
ENERGY: 600000 2.1201 2.2413 1.7451 0.0000 -10697.8155 1407.6713 0.0000 0.0000 1749.1687 -7534.8689 298.2791 -9284.0376 -7503.7831 297.4538 -182.1774 -142.3813 30170.9684 -75.5165 1.1849
ENERGY: 900000 3.4850 4.7662 2.0419 0.0000 -10657.6392 1419.8177 0.0000 0.0000 1755.3921 -7472.1363 299.3404 -9227.5284 -7502.3862 298.6791 -365.3988 -330.8573 30843.1449 -116.8483 -52.6177
ENERGY: 1200000 1.0695 5.1089 1.5291 0.0000 -10752.0675 1448.3846 0.0000 0.0000 1728.3665 -7567.6088 294.7318 -9295.9753 -7508.2899 299.3842 19.6389 103.7085 30098.5121 -96.5039 -31.2772
ENERGY: 1500000 0.5297 3.5503 1.6047 0.0000 -10696.3043 1411.4183 0.0000 0.0000 1716.8165 -7562.3847 292.7622 -9279.2013 -7512.6819 298.7158 -510.0594 -415.7607 30657.6250 -134.4929 -65.0477
TCL: Running FEP window  13: Lambda1 0.39999999999999963 Lambda2 0.34999999999999964 [dLambda -0.04999999999999999]
TCL: Setting parameter firsttimestep to 0
TCL: Setting parameter alchLambda to 0.39999999999999963
Info: NONBONDED TABLE R-SQUARED SPACING: 0.0625
Info: NONBONDED TABLE SIZE: 705 POINTS
TCL: Setting parameter alchLambda2 to 0.34999999999999964
Info: NONBONDED TABLE R-SQUARED SPACING: 0.0625
Info: NONBONDED TABLE SIZE: 705 POINTS
TCL: Running for 1500000 steps
ETITLE: TS BOND ANGLE DIHED IMPRP ELECT VDW BOUNDARY MISC KINETIC TOTAL TEMP POTENTIAL TOTALAVG TEMPAVG PRESSURE GPRESSURE VOLUME PRESSAVG GPRESSAVG
ENERGY: 0 0.5297 3.5503 1.6047 0.0000 -10696.3043 1410.9054 0.0000 0.0000 1715.9622 -7563.7519 292.6166 -9279.7142 -7563.7519 292.6166 -520.4326 -426.2160 30657.6250 -520.4326 -426.2160
ENERGY: 300000 2.7215 2.6615 1.5565 0.0000 -10609.6844 1337.5477 0.0000 0.0000 1768.5089 -7496.6884 301.5771 -9265.1973 -7523.0550 297.6176 -839.4691 -765.7972 30188.4164 -312.1297 -224.9716
ENERGY: 600000 1.6818 2.2559 1.5586 0.0000 -10797.5324 1438.3220 0.0000 0.0000 1781.1946 -7572.5195 303.7404 -9353.7141 -7518.8871 300.6287 -45.6638 -3.7057 30061.0654 -172.7046 -95.8427
ENERGY: 900000 1.5303 3.6359 2.7551 0.0000 -10926.1803 1596.0781 0.0000 0.0000 1793.2432 -7528.9376 305.7950 -9322.1808 -7504.6379 301.2478 1221.6020 1283.0765 29879.9225 76.8191 141.7804
ENERGY: 1200000 0.9403 6.1122 1.6656 0.0000 -10649.2241 1435.9030 0.0000 0.0000 1731.9951 -7472.6080 295.3506 -9204.6031 -7513.8885 300.2772 -140.1751 -172.7356 31231.1866 94.0073 155.6886
ENERGY: 1500000 1.1782 1.1572 2.0271 0.0000 -10631.2899 1410.0451 0.0000 0.0000 1741.4625 -7475.4198 296.9650 -9216.8823 -7503.6734 300.4551 -7.7302 32.2543 30224.3319 97.5731 158.3671
TCL: Running FEP window  14: Lambda1 0.34999999999999964 Lambda2 0.29999999999999966 [dLambda -0.04999999999999999]
TCL: Setting parameter firsttimestep to 0
TCL: Setting parameter alchLambda to 0.34999999999999964
Info: NONBONDED TABLE R-SQUARED SPACING: 0.0625
Info: NONBONDED TABLE SIZE: 705 POINTS
TCL: Setting parameter alchLambda2 to 0.29999999999999966
Info: NONBONDED TABLE R-SQUARED SPACING: 0.0625
Info: NONBONDED TABLE SIZE: 705 POINTS
TCL: Running for 1500000 steps
ETITLE: TS BOND ANGLE DIHED IMPRP ELECT VDW BOUNDARY MISC KINETIC TOTAL TEMP POTENTIAL TOTALAVG TEMPAVG PRESSURE GPRESSURE VOLUME PRESSAVG GPRESSAVG
ENERGY: 0 1.1782 1.1572 2.0271 0.0000 -10631.2898 1410.5702 0.0000 0.0000 1740.6061 -7475.7510 296.8190 -9216.3570 -7475.7510 296.8190 -50.7006 32.9444 30224.3319 -50.7006 32.9444
ENERGY: 300000 3.5230 2.7868 1.6939 0.0000 -10619.6141 1420.0274 0.0000 0.0000 1698.5690 -7493.0140 289.6506 -9191.5830 -7497.4488 294.6411 71.8822 71.7841 30229.4198 115.9464 190.0426
ENERGY: 600000 0.3098 4.5526 1.6674 0.0000 -10791.2192 1488.7361 0.0000 0.0000 1720.9238 -7575.0295 293.4626 -9295.9532 -7520.2813 295.3174 79.5119 102.5328 30577.8881 8.8391 69.9411
ENERGY: 900000 1.5509 4.6464 1.5741 0.0000 -10659.9124 1418.6462 0.0000 0.0000 1746.3551 -7487.1396 297.7993 -9233.4947 -7516.3025 296.5957 -202.7153 -156.9117 30804.6647 -11.9404 43.2530
ENERGY: 1200000 1.3223 7.4123 1.5618 0.0000 -10637.0474 1428.1794 0.0000 0.0000 1787.8370 -7410.7345 304.8731 -9198.5716 -7497.6139 298.5945 34.5324 77.7569 30850.4430 -19.4391 27.7892
ENERGY: 1500000 1.1343 6.1379 3.3754 0.0000 -10693.8999 1450.2700 0.0000 0.0000 1762.8466 -7470.1356 300.6116 -9232.9823 -7497.1113 298.5924 268.0122 309.0351 30074.9921 33.6410 80.3174
TCL: Running FEP window  15: Lambda1 0.29999999999999966 Lambda2 0.24999999999999967 [dLambda -0.04999999999999999]
TCL: Setting parameter firsttimestep to 0
TCL: Setting parameter alchLambda to 0.29999999999999966
Info: NONBONDED TABLE R-SQUARED SPACING: 0.0625
Info: NONBONDED TABLE SIZE: 705 POINTS
TCL: Setting parameter alchLambda2 to 0.24999999999999967
Info: NONBONDED TABLE R-SQUARED SPACING: 0.0625
Info: NONBONDED TABLE SIZE: 705 POINTS
TCL: Running for 1500000 steps
ETITLE: TS BOND ANGLE DIHED IMPRP ELECT VDW BOUNDARY MISC KINETIC TOTAL TEMP POTENTIAL TOTALAVG TEMPAVG PRESSURE GPRESSURE VOLUME PRESSAVG GPRESSAVG
ENERGY: 0 1.1343 6.1379 3.3754 0.0000 -10693.8970 1450.1183 0.0000 0.0000 1761.9926 -7471.1385 300.4660 -9233.1311 -7471.1385 300.4660 224.6072 301.6174 30074.9921 224.6072 301.6174
ENERGY: 300000 0.1931 5.1728 1.8941 0.0000 -10593.7414 1334.6997 0.0000 0.0000 1758.7255 -7493.0561 299.9088 -9251.7816 -7519.9682 296.1209 -743.5120 -662.9290 30265.8602 -134.7131 -47.5671
ENERGY: 600000 2.0192 2.5296 2.5285 0.0000 -10733.8892 1451.9497 0.0000 0.0000 1764.8776 -7509.9845 300.9579 -9274.8622 -7506.7552 298.2415 9.5931 90.5432 30213.2657 -183.7125 -110.2002
ENERGY: 900000 1.5958 2.0642 1.6322 0.0000 -10732.3850 1519.7859 0.0000 0.0000 1738.5050 -7468.8019 296.4607 -9207.3069 -7498.6853 297.7016 756.4117 862.1949 30110.5448 -154.6482 -80.5785
ENERGY: 1200000 3.5387 2.5505 1.6009 0.0000 -10604.2365 1464.5627 0.0000 0.0000 1747.6686 -7384.3150 298.0233 -9131.9836 -7490.1542 299.0169 247.9249 315.0205 30887.7367 -139.4453 -67.6757
ENERGY: 1500000 0.9710 1.3246 2.0953 0.0000 -10511.8510 1279.8078 0.0000 0.0000 1723.5250 -7504.1274 293.9062 -9227.6524 -7487.8230 298.8919 -1443.9232 -1391.0603 30645.3471 -151.5432 -79.1329
TCL: Running FEP window  16: Lambda1 0.24999999999999967 Lambda2 0.19999999999999968 [dLambda -0.04999999999999999]
TCL: Setting parameter firsttimestep to 0
TCL: Setting parameter alchLambda to 0.24999999999999967
Info: NONBONDED TABLE R-SQUARED SPACING: 0.0625
Info: NONBONDED TABLE SIZE: 705 POINTS
TCL: Setting parameter alchLambda2 to 0.19999999999999968
Info: NONBONDED TABLE R-SQUARED SPACING: 0.0625
Info: NONBONDED TABLE SIZE: 705 POINTS
TCL: Running for 1500000 steps
ETITLE: TS BOND ANGLE DIHED IMPRP ELECT VDW BOUNDARY MISC KINETIC TOTAL TEMP POTENTIAL TOTALAVG TEMPAVG PRESSURE GPRESSURE VOLUME PRESSAVG GPRESSAVG
ENERGY: 0 0.9710 1.3246 2.0953 0.0000 -10511.8508 1280.3301 0.0000 0.0000 1722.6454 -7504.4844 293.7562 -9227.1298 -7504.4844 293.7562 -1487.1047 -1392.9544 30645.3471 -1487.1047 -1392.9544
ENERGY: 300000 1.2988 3.3936 1.8213 0.0000 -10781.2734 1510.4311 0.0000 0.0000 1702.7293 -7561.5992 290.3600 -9264.3285 -7547.4691 293.1423 454.6272 566.5489 30232.7574 -466.2037 -374.8977
ENERGY: 600000 0.7206 1.5737 1.6123 0.0000 -10580.3100 1347.4941 0.0000 0.0000 1786.4622 -7442.4471 304.6387 -9228.9093 -7499.0913 298.1165 -477.9813 -426.1320 30413.1190 -362.4548 -274.0105
ENERGY: 900000 3.7824 3.3645 1.5602 0.0000 -10832.2329 1492.5362 0.0000 0.0000 1791.1013 -7539.8882 305.4297 -9330.9896 -7508.0854 297.1651 239.9018 352.0362 29862.9009 -309.2379 -218.9362
ENERGY: 1200000 1.3734 2.5776 1.5244 0.0000 -10812.6360 1563.6013 0.0000 0.0000 1718.3054 -7525.2538 293.0161 -9243.5592 -7510.8223 297.2538 665.9517 769.1945 30697.0151 -196.0682 -109.7166
ENERGY: 1500000 4.7085 2.8825 1.5525 0.0000 -10604.0513 1438.9353 0.0000 0.0000 1790.2606 -7365.7118 305.2864 -9155.9724 -7500.1412 298.6958 94.7481 205.5961 30289.7760 -98.4230 -11.0125
TCL: Running FEP window  17: Lambda1 0.19999999999999968 Lambda2 0.1499999999999997 [dLambda -0.04999999999999999]
TCL: Setting parameter firsttimestep to 0
TCL: Setting parameter alchLambda to 0.19999999999999968
Info: NONBONDED TABLE R-SQUARED SPACING: 0.0625
Info: NONBONDED TABLE SIZE: 705 POINTS
TCL: Setting parameter alchLambda2 to 0.1499999999999997
Info: NONBONDED TABLE R-SQUARED SPACING: 0.0625
Info: NONBONDED TABLE SIZE: 705 POINTS
TCL: Running for 1500000 steps
ETITLE: TS BOND ANGLE DIHED IMPRP ELECT VDW BOUNDARY MISC KINETIC TOTAL TEMP POTENTIAL TOTALAVG TEMPAVG PRESSURE GPRESSURE VOLUME PRESSAVG GPRESSAVG
ENERGY: 0 4.7085 2.8825 1.5525 0.0000 -10604.0510 1439.2826 0.0000 0.0000 1789.3974 -7366.2275 305.1392 -9155.6249 -7366.2275 305.1392 113.1339 207.6229 30289.7760 113.1339 207.6229
ENERGY: 300000 2.5413 1.7821 3.4365 0.0000 -10582.4173 1363.0558 0.0000 0.0000 1724.6272 -7486.9744 294.0942 -9211.6016 -7429.7601 299.2625 -629.3948 -680.8833 30888.6956 -147.2380 -98.2573
ENERGY: 600000 1.6378 2.6421 1.6278 0.0000 -10781.8631 1543.2593 0.0000 0.0000 1744.0734 -7488.6228 297.4102 -9232.6962 -7457.6049 300.3837 760.7136 860.2811 30195.3608 -46.1436 20.2769
ENERGY: 900000 3.8672 2.2606 1.6333 0.0000 -10527.2703 1334.2968 0.0000 0.0000 1760.6524 -7424.5601 300.2374 -9185.2125 -7465.1340 300.5692 -797.5845 -765.7136 30893.8245 -107.1473 -42.3397
ENERGY: 1200000 4.4534 2.6906 1.5935 0.0000 -10615.0045 1434.9822 0.0000 0.0000 1735.7699 -7435.5149 295.9943 -9171.2848 -7464.7642 301.0892 160.1651 228.5541 30434.3133 -22.1321 39.9805
ENERGY: 1500000 3.0757 2.2317 1.7035 0.0000 -10676.7167 1415.9807 0.0000 0.0000 1715.9017 -7537.8235 292.6062 -9253.7252 -7462.8171 300.6315 -178.3298 -117.3574 30261.7498 -66.3069 -5.2262
TCL: Running FEP window  18: Lambda1 0.1499999999999997 Lambda2 0.09999999999999969 [dLambda -0.05 ]
TCL: Setting parameter firsttimestep to 0
TCL: Setting parameter alchLambda to 0.1499999999999997
Info: NONBONDED TABLE R-SQUARED SPACING: 0.0625
Info: NONBONDED TABLE SIZE: 705 POINTS
TCL: Setting parameter alchLambda2 to 0.09999999999999969
Info: NONBONDED TABLE R-SQUARED SPACING: 0.0625
Info: NONBONDED TABLE SIZE: 705 POINTS
TCL: Running for 1500000 steps
ETITLE: TS BOND ANGLE DIHED IMPRP ELECT VDW BOUNDARY MISC KINETIC TOTAL TEMP POTENTIAL TOTALAVG TEMPAVG PRESSURE GPRESSURE VOLUME PRESSAVG GPRESSAVG
ENERGY: 0 3.0757 2.2317 1.7035 0.0000 -10676.7172 1416.0495 0.0000 0.0000 1715.0473 -7538.6094 292.4605 -9253.6568 -7538.6094 292.4605 -196.4524 -119.5238 30261.7498 -196.4524 -119.5238
ENERGY: 300000 0.5351 3.9063 1.8197 0.0000 -10709.7526 1443.4513 0.0000 0.0000 1721.7017 -7538.3384 293.5953 -9260.0401 -7506.2424 298.8101 -83.6934 -17.2500 30598.5938 -80.6613 -36.2419
ENERGY: 600000 3.1276 2.0398 1.6229 0.0000 -10627.8024 1391.1149 0.0000 0.0000 1817.3666 -7412.5306 309.9087 -9229.8971 -7470.0861 301.2012 -461.8393 -472.9774 31083.5722 -93.8325 -58.0335
ENERGY: 900000 1.0039 3.0133 1.6288 0.0000 -10675.3765 1406.6570 0.0000 0.0000 1784.6237 -7478.4498 304.3251 -9263.0735 -7473.4425 302.2517 -431.8796 -326.1243 30426.6072 -43.7801 -0.4855
ENERGY: 1200000 1.7767 4.2725 1.7856 0.0000 -10561.6410 1363.8912 0.0000 0.0000 1757.1230 -7432.7918 299.6356 -9189.9149 -7469.0603 302.3829 -430.3251 -336.7193 30480.2613 6.6864 59.2408
ENERGY: 1500000 2.1568 4.5070 1.5104 0.0000 -10676.1554 1443.6979 0.0000 0.0000 1794.2552 -7430.0282 305.9676 -9224.2834 -7469.5808 302.4263 4.5754 85.3045 30302.1300 54.2132 102.6083
TCL: Running FEP window  19: Lambda1 0.09999999999999969 Lambda2 0.049999999999999684 [dLambda -0.05 ]
TCL: Setting parameter firsttimestep to 0
TCL: Setting parameter alchLambda to 0.09999999999999969
Info: NONBONDED TABLE R-SQUARED SPACING: 0.0625
Info: NONBONDED TABLE SIZE: 705 POINTS
TCL: Setting parameter alchLambda2 to 0.049999999999999684
Info: NONBONDED TABLE R-SQUARED SPACING: 0.0625
Info: NONBONDED TABLE SIZE: 705 POINTS
TCL: Running for 1500000 steps
ETITLE: TS BOND ANGLE DIHED IMPRP ELECT VDW BOUNDARY MISC KINETIC TOTAL TEMP POTENTIAL TOTALAVG TEMPAVG PRESSURE GPRESSURE VOLUME PRESSAVG GPRESSAVG
ENERGY: 0 2.1567 4.5070 1.5104 0.0000 -10676.1562 1443.6336 0.0000 0.0000 1793.3755 -7430.9730 305.8176 -9224.3485 -7430.9730 305.8176 -3.9872 83.6527 30302.1300 -3.9872 83.6527
ENERGY: 300000 2.8619 5.7432 1.6745 0.0000 -10788.8353 1494.2458 0.0000 0.0000 1722.1016 -7562.2082 293.6635 -9284.3099 -7478.2770 302.4428 348.7569 438.5002 30039.1138 -98.9730 -3.4639
ENERGY: 600000 1.0449 5.3522 3.5478 0.0000 -10591.7516 1368.8813 0.0000 0.0000 1733.8833 -7479.0422 295.6726 -9212.9255 -7463.2976 301.4624 -641.8410 -565.3486 30750.0054 -80.1020 -10.6839
ENERGY: 900000 0.1258 2.9043 1.6011 0.0000 -10745.4890 1448.2878 0.0000 0.0000 1723.9929 -7568.5770 293.9860 -9292.5699 -7481.7433 299.9978 -66.1448 41.0613 30175.2219 -165.0551 -97.8425
ENERGY: 1200000 3.5084 1.6915 1.5271 0.0000 -10718.2727 1475.6074 0.0000 0.0000 1745.6258 -7490.3126 297.6750 -9235.9384 -7469.1043 299.4241 312.2832 363.4923 30282.8087 -143.2427 -73.9242
ENERGY: 1500000 2.3659 2.8631 1.6618 0.0000 -10761.6206 1451.7305 0.0000 0.0000 1761.7097 -7541.2896 300.4177 -9302.9993 -7469.3537 299.2199 -17.5642 11.8744 30398.7319 -122.8595 -51.8505
TCL: Running FEP window  20: Lambda1 0.049999999999999684 Lambda2 0.0    [dLambda -0.049999999999999684]
TCL: Setting parameter firsttimestep to 0
TCL: Setting parameter alchLambda to 0.049999999999999684
Info: NONBONDED TABLE R-SQUARED SPACING: 0.0625
Info: NONBONDED TABLE SIZE: 705 POINTS
TCL: Setting parameter alchLambda2 to 0.0
Info: NONBONDED TABLE R-SQUARED SPACING: 0.0625
Info: NONBONDED TABLE SIZE: 705 POINTS
TCL: Running for 1500000 steps
ETITLE: TS BOND ANGLE DIHED IMPRP ELECT VDW BOUNDARY MISC KINETIC TOTAL TEMP POTENTIAL TOTALAVG TEMPAVG PRESSURE GPRESSURE VOLUME PRESSAVG GPRESSAVG
ENERGY: 0 2.3659 2.8631 1.6618 0.0000 -10761.6194 1451.5069 0.0000 0.0000 1760.8070 -7542.4147 300.2638 -9303.2217 -7542.4147 300.2638 -86.0181 7.9868 30398.7319 -86.0181 7.9868
ENERGY: 300000 2.3354 2.6799 2.7690 0.0000 -10676.0207 1402.8889 0.0000 0.0000 1738.2720 -7527.0756 296.4210 -9265.3476 -7515.9164 299.2233 -497.4443 -400.2018 30376.7268 -186.3722 -103.3127
ENERGY: 600000 0.8709 6.4849 1.7389 0.0000 -10880.9875 1570.3627 0.0000 0.0000 1771.2707 -7530.2594 302.0481 -9301.5302 -7526.9359 299.2977 974.1028 1047.6357 29869.8192 59.3022 132.6209
ENERGY: 900000 1.8054 1.3355 1.5083 0.0000 -10621.5123 1428.1011 0.0000 0.0000 1769.5520 -7419.2099 301.7550 -9188.7619 -7501.9487 299.2978 -275.2791 -226.7493 30662.8478 -55.7229 13.7170
ENERGY: 1200000 0.1267 1.2652 1.6769 0.0000 -10553.6998 1403.9093 0.0000 0.0000 1758.8553 -7387.8664 299.9310 -9146.7218 -7488.4133 299.1233 -25.0726 64.5117 30494.0113 -64.5118 -1.8181
ENERGY: 1500000 0.2554 4.2759 1.7576 0.0000 -10628.6411 1403.5149 0.0000 0.0000 1711.6614 -7507.1758 291.8832 -9218.8372 -7486.7350 299.6800 -91.2378 -12.5293 30249.6490 -123.8647 -61.4778
TCL: Exiting due to exit command.
