Info: SIMULATION PARAMETERS:
Info: TIMESTEP               2
Info: NUMBER OF STEPS        0
Info: STEPS PER CYCLE        10
Info: PERIODIC CELL BASIS 1  30.7577 0 0
Info: PERIODIC CELL BASIS 2  0 31.4548 0
Info: PERIODIC CELL BASIS 3  0 0 31.4056
Info: PERIODIC CELL CENTER   0 0 0
Info: WRAPPING WATERS AROUND PERIODIC BOUNDARIES ON OUTPUT.
Info: WRAPPING ALL CLUSTERS AROUND PERIODIC BOUNDARIES ON OUTPUT.
Info: FIRST LDB TIMESTEP     50
Info: LAST LDB TIMESTEP     -1
Info: HOM BACKGROUND SCALING 1
Info: PME BACKGROUND SCALING 1
Info: MIN ATOMS PER PATCH    40
Info: EMPTY PATCH LOAD       40 ATOMS
Info: VELOCITY FILE          mobley_1231151_equil.vel
Info: CENTER OF MASS MOVING INITIALLY? NO
Info: DIELECTRIC             1
Info: EXCLUDE                SCALED ONE-FOUR
Info: 1-4 ELECTROSTATICS SCALED BY 0.833333
Info: MODIFIED 1-4 VDW PARAMETERS WILL BE USED
Info: DCD FILENAME           mobley_1231151_prod.dcd
Info: DCD FREQUENCY          100000
Info: DCD FIRST STEP         100000
Info: DCD FILE WILL CONTAIN UNIT CELL DATA
Info: XST FILENAME           mobley_1231151_prod.xst
Info: XST FREQUENCY          100000
Info: NO VELOCITY DCD OUTPUT
Info: NO FORCE DCD OUTPUT
Info: OUTPUT FILENAME        mobley_1231151_prod
Info: BINARY OUTPUT FILES WILL BE USED
Info: RESTART FILENAME       mobley_1231151_prod.restart
Info: RESTART FREQUENCY      100000
Info: BINARY RESTART FILES WILL BE USED
Info: CUTOFF                 9
Info: PAIRLIST DISTANCE      11
Info: PAIRLIST SHRINK RATE   0.01
Info: PAIRLIST GROW RATE     0.01
Info: PAIRLIST TRIGGER       0.3
Info: PAIRLISTS PER CYCLE    2
Info: PAIRLISTS ENABLED
Info: MARGIN                 2
Info: HYDROGEN GROUP CUTOFF  2.5
Info: PATCH DIMENSION        15.5
Info: ENERGY OUTPUT STEPS    100000
Info: ENERGY EVALUATION STEPS    100000
Info: OUTPUT ENERGY PRECISION 4
Info: CROSSTERM ENERGY INCLUDED IN DIHEDRAL
Info: TIMING OUTPUT STEPS    1000000
Info: PRESSURE OUTPUT STEPS  100000
Info: FIXED ATOMS ACTIVE
Info: ALCHEMICAL FEP ON
Info: FEP CURRENT LAMBDA VALUE     1
Info: FEP COMPARISON LAMBDA VALUE  0.95
Info: FEP INTRA-ALCHEMICAL NON-BONDED INTERACTIONS WILL BE RETAINED
Info: FEP INTRA-ALCHEMICAL BONDED INTERACTIONS WILL BE RETAINED
Info: FEP VDW SHIFTING COEFFICIENT 5
Info: FEP ELEC. ACTIVE FOR ANNIHILATED PARTICLES BETWEEN LAMBDA = 0 AND LAMBDA = 0.5
Info: FEP ELEC. ACTIVE FOR EXNIHILATED PARTICLES BETWEEN LAMBDA = 0.5 AND LAMBDA = 1
Info: FEP VDW ACTIVE FOR ANNIHILATED PARTICLES BETWEEN LAMBDA = 0 AND LAMBDA = 1
Info: FEP VDW ACTIVE FOR EXNIHILATED PARTICLES BETWEEN LAMBDA = 0 AND LAMBDA = 1
Info: FEP BOND ACTIVE FOR ANNIHILATED PARTICLES BETWEEN LAMBDA = 1 AND LAMBDA = 1
Info: FEP BOND ACTIVE FOR EXNIHILATED PARTICLES BETWEEN LAMBDA = 0 AND LAMBDA = 0
Info: LANGEVIN DYNAMICS ACTIVE
Info: LANGEVIN TEMPERATURE   300
Info: LANGEVIN USING BBK INTEGRATOR
Info: LANGEVIN DAMPING COEFFICIENT IS 1 INVERSE PS
Info: LANGEVIN DYNAMICS APPLIED TO HYDROGENS
Info: LANGEVIN PISTON PRESSURE CONTROL ACTIVE
Info:        TARGET PRESSURE IS 1.01325 BAR
Info:     OSCILLATION PERIOD IS 50 FS
Info:             DECAY TIME IS 25 FS
Info:     PISTON TEMPERATURE IS 300 K
Info:       PRESSURE CONTROL IS GROUP-BASED
Info:    INITIAL STRAIN RATE IS 0.000134635 0.000134635 0.000134635
Info:       CELL FLUCTUATION IS ISOTROPIC
Info: PARTICLE MESH EWALD (PME) ACTIVE
Info: PME TOLERANCE               1e-06
Info: PME EWALD COEFFICIENT       0.348832
Info: PME INTERPOLATION ORDER     4
Info: PME GRID DIMENSIONS         32 32 32
Info: PME MAXIMUM GRID SPACING    1
Info: FULL ELECTROSTATIC EVALUATION FREQUENCY      2
Info: USING VERLET I (r-RESPA) MTS SCHEME.
Info: C1 SPLITTING OF LONG RANGE ELECTROSTATICS
Info: PLACING ATOMS IN PATCHES BY HYDROGEN GROUPS
Info: RIGID BONDS TO HYDROGEN : ALL
Info:         ERROR TOLERANCE : 1e-08
Info:          MAX ITERATIONS : 100
Info: RIGID WATER USING SETTLE ALGORITHM
Info: RANDOM NUMBER SEED     1742525076
Info: USE HYDROGEN BONDS?    NO
Info: Using AMBER format force field!
Info: AMBER PARM FILE        mobley_1231151.prmtop
Info: COORDINATE PDB         mobley_1231151.pdb
Info: Exclusions will be read from PARM file!
Info: SCNB (VDW SCALING)     2
Info: USING ARITHMETIC MEAN TO COMBINE L-J SIGMA PARAMETERS
Info: BINARY COORDINATES     mobley_1231151_equil.coor
Info: MIXED PRECISION AVX-512 TILES OPTIMIZATIONS: DISABLED
Info: SUMMARY OF PARAMETERS:
Info: 6 BONDS
Info: 6 ANGLES
Info:   6 HARMONIC
Info:   0 COSINE-BASED
Info: 3 DIHEDRAL
Info: 0 IMPROPER
Info: 0 CROSSTERM
Info: 0 VDW
Info: 21 VDW_PAIRS
Info: 0 NBTHOLE_PAIRS
Info: To read alchdata from file: mobley_1231151.pdb
Info: To read alchflag data from column: 5
Info: STRUCTURE SUMMARY:
Info: 2999 ATOMS
Info: 2998 BONDS
Info: 18 ANGLES
Info: 18 DIHEDRALS
Info: 0 IMPROPERS
Info: 0 CROSSTERMS
Info: 3034 EXCLUSIONS
Info: 11 FIXED ATOMS
Info: 2995 RIGID BONDS
Info: 7 RIGID BONDS BETWEEN FIXED ATOMS
Info: ALCH: 0 ATOMS TO DISAPPEAR IN FINAL STATE
Info: ALCH: 11 ATOMS TO APPEAR IN FINAL STATE
Info: 5976 DEGREES OF FREEDOM
Info: 1000 HYDROGEN GROUPS
Info: 4 ATOMS IN LARGEST HYDROGEN GROUP
Info: 1000 MIGRATION GROUPS
Info: 4 ATOMS IN LARGEST MIGRATION GROUP
Info: 4 HYDROGEN GROUPS WITH ALL ATOMS FIXED
Info: TOTAL MASS = 18022.5 amu
Info: TOTAL CHARGE = 0.000199996 e
Info: MASS DENSITY = 0.984977 g/cm^3
Info: ATOM DENSITY = 0.0987027 atoms/A^3
Info: ADDED 0 IMPLICIT EXCLUSIONS
Info: NONBONDED TABLE R-SQUARED SPACING: 0.0625
Info: NONBONDED TABLE SIZE: 705 POINTS
Info: REMOVING COM VELOCITY -0.0482448 -0.0178936 -0.0712528
TCL: Running for 1500000 steps
ETITLE: TS BOND ANGLE DIHED IMPRP ELECT VDW BOUNDARY MISC KINETIC TOTAL TEMP POTENTIAL TOTAL3 TEMPAVG PRESSURE GPRESSURE VOLUME PRESSAVG GPRESSAVG
ENERGY: 0 0.0000 0.0000 0.0000 0.0000 -10901.1297 1403.7761 0.0000 0.0000 1776.7730 -7720.5807 299.2345 -9497.3537 -7716.9792 299.2345 -460.7685 -375.4652 30384.1811 -460.7685 -375.4652
ENERGY: 300000 0.0000 0.0000 0.0000 0.0000 -10991.4629 1545.1732 0.0000 0.0000 1801.4321 -7644.8576 303.3875 -9446.2897 -7641.7264 300.3591 780.2695 881.4078 30419.3061 3.5940 3.4744
ENERGY: 600000 0.0000 0.0000 0.0000 0.0000 -10860.7787 1490.1363 0.0000 0.0000 1756.0883 -7614.5541 295.7509 -9370.6424 -7611.3922 299.9827 558.2608 594.7444 30538.5525 3.8025 3.8251
ENERGY: 900000 0.0000 0.0000 0.0000 0.0000 -10876.5146 1437.2175 0.0000 0.0000 1797.7084 -7641.5887 302.7604 -9439.2971 -7639.1031 299.8381 -219.8512 -102.2315 30895.8507 4.2169 4.2751
ENERGY: 1200000 0.0000 0.0000 0.0000 0.0000 -10862.9283 1480.2611 0.0000 0.0000 1765.8233 -7616.8439 297.3905 -9382.6672 -7614.9001 301.1394 255.3210 308.5235 30954.1324 3.9008 3.6854
ENERGY: 1500000 0.0000 0.0000 0.0000 0.0000 -10938.4151 1487.6999 0.0000 0.0000 1787.3813 -7663.3339 301.0211 -9450.7152 -7660.8053 300.8026 93.5570 194.6294 30724.6899 3.0486 2.9844
TCL: Running FEP window   2: Lambda1 0.95   Lambda2 0.8999999999999999 [dLambda -0.050000000000000044]
TCL: Setting parameter firsttimestep to 0
TCL: Setting parameter alchLambda to 0.95
Info: NONBONDED TABLE R-SQUARED SPACING: 0.0625
Info: NONBONDED TABLE SIZE: 705 POINTS
TCL: Setting parameter alchLambda2 to 0.8999999999999999
Info: NONBONDED TABLE R-SQUARED SPACING: 0.0625
Info: NONBONDED TABLE SIZE: 705 POINTS
TCL: Running for 1500000 steps
ETITLE: TS BOND ANGLE DIHED IMPRP ELECT VDW BOUNDARY MISC KINETIC TOTAL TEMP POTENTIAL TOTAL3 TEMPAVG PRESSURE GPRESSURE VOLUME PRESSAVG GPRESSAVG
ENERGY: 0 0.0000 0.0000 0.0000 0.0000 -10937.9269 1487.9392 0.0000 0.0000 1786.4804 -7663.5073 300.8694 -9449.9878 -7659.6113 300.8694 108.4704 190.9339 30724.6899 108.4704 190.9339
ENERGY: 300000 0.0000 0.0000 0.0000 0.0000 -10846.4872 1478.8995 0.0000 0.0000 1783.3469 -7584.2407 300.3417 -9367.5877 -7581.1179 300.1430 394.6631 464.8138 30684.6668 3.0749 2.9772
ENERGY: 600000 0.0000 0.0000 0.0000 0.0000 -10764.8947 1422.9586 0.0000 0.0000 1757.9165 -7584.0196 296.0589 -9341.9361 -7581.4556 300.2483 -138.7394 -86.8777 31098.9964 3.7906 3.7604
ENERGY: 900000 0.0000 0.0000 0.0000 0.0000 -10928.6313 1472.4088 0.0000 0.0000 1733.8955 -7722.3270 292.0134 -9456.2225 -7718.2877 300.9148 23.5580 85.8129 30531.0430 3.8209 3.7103
ENERGY: 1200000 0.0000 0.0000 0.0000 0.0000 -10830.8892 1409.0660 0.0000 0.0000 1758.2183 -7663.6050 296.1097 -9421.8232 -7662.5800 300.1462 -508.9089 -408.7533 31053.4904 3.6560 3.7091
ENERGY: 1500000 0.0000 0.0000 0.0000 0.0000 -10928.3483 1515.4705 0.0000 0.0000 1737.4617 -7675.4161 292.6140 -9412.8778 -7671.5116 300.3863 499.2184 608.4357 30707.8865 4.0367 4.0116
TCL: Running FEP window   3: Lambda1 0.8999999999999999 Lambda2 0.8499999999999999 [dLambda -0.050000000000000044]
TCL: Setting parameter firsttimestep to 0
TCL: Setting parameter alchLambda to 0.8999999999999999
Info: NONBONDED TABLE R-SQUARED SPACING: 0.0625
Info: NONBONDED TABLE SIZE: 705 POINTS
TCL: Setting parameter alchLambda2 to 0.8499999999999999
Info: NONBONDED TABLE R-SQUARED SPACING: 0.0625
Info: NONBONDED TABLE SIZE: 705 POINTS
TCL: Running for 1500000 steps
ETITLE: TS BOND ANGLE DIHED IMPRP ELECT VDW BOUNDARY MISC KINETIC TOTAL TEMP POTENTIAL TOTAL3 TEMPAVG PRESSURE GPRESSURE VOLUME PRESSAVG GPRESSAVG
ENERGY: 0 0.0000 0.0000 0.0000 0.0000 -10927.9594 1515.4679 0.0000 0.0000 1736.5927 -7675.8988 292.4676 -9412.4915 -7672.7401 292.4676 529.2929 596.7283 30707.8865 529.2929 596.7283
ENERGY: 300000 0.0000 0.0000 0.0000 0.0000 -10826.0075 1462.5200 0.0000 0.0000 1740.8566 -7622.6308 293.1857 -9363.4875 -7619.2008 300.4819 29.9011 76.7756 31260.2968 2.7098 2.6159
ENERGY: 600000 0.0000 0.0000 0.0000 0.0000 -10921.4660 1467.3940 0.0000 0.0000 1862.0340 -7592.0380 313.5937 -9454.0720 -7589.4251 299.7901 132.2907 199.8278 30635.0262 3.8466 3.8590
ENERGY: 900000 0.0000 0.0000 0.0000 0.0000 -10891.3572 1373.4244 0.0000 0.0000 1795.6958 -7722.2370 302.4214 -9517.9328 -7716.7134 300.1786 -1091.7225 -983.1392 31049.5181 1.9340 1.7859
ENERGY: 1200000 0.0000 0.0000 0.0000 0.0000 -10865.7107 1421.1931 0.0000 0.0000 1808.8557 -7635.6619 304.6377 -9444.5176 -7632.9643 300.3303 -329.0466 -188.1720 30435.0617 2.1946 2.0537
ENERGY: 1500000 0.0000 0.0000 0.0000 0.0000 -10890.3574 1473.5736 0.0000 0.0000 1799.8261 -7616.9577 303.1170 -9416.7838 -7614.4804 300.2947 142.0658 213.7575 30384.0142 2.5497 2.5739
TCL: Running FEP window   4: Lambda1 0.8499999999999999 Lambda2 0.7999999999999998 [dLambda -0.050000000000000044]
TCL: Setting parameter firsttimestep to 0
TCL: Setting parameter alchLambda to 0.8499999999999999
Info: NONBONDED TABLE R-SQUARED SPACING: 0.0625
Info: NONBONDED TABLE SIZE: 705 POINTS
TCL: Setting parameter alchLambda2 to 0.7999999999999998
Info: NONBONDED TABLE R-SQUARED SPACING: 0.0625
Info: NONBONDED TABLE SIZE: 705 POINTS
TCL: Running for 1500000 steps
ETITLE: TS BOND ANGLE DIHED IMPRP ELECT VDW BOUNDARY MISC KINETIC TOTAL TEMP POTENTIAL TOTAL3 TEMPAVG PRESSURE GPRESSURE VOLUME PRESSAVG GPRESSAVG
ENERGY: 0 0.0000 0.0000 0.0000 0.0000 -10890.0676 1473.7013 0.0000 0.0000 1798.9582 -7617.4081 302.9709 -9416.3663 -7614.9212 302.9709 109.4193 203.0132 30384.0142 109.4193 203.0132
ENERGY: 300000 0.0000 0.0000 0.0000 0.0000 -10801.4229 1427.3826 0.0000 0.0000 1794.3292 -7579.7111 302.1913 -9374.0403 -7576.0555 300.4767 -282.0141 -203.9694 31018.3784 1.8997 1.8428
ENERGY: 600000 0.0000 0.0000 0.0000 0.0000 -10911.9584 1470.6691 0.0000 0.0000 1696.0683 -7745.2210 285.6427 -9441.2893 -7741.7867 299.4306 -75.4870 48.0159 30835.7020 2.9626 3.0007
ENERGY: 900000 0.0000 0.0000 0.0000 0.0000 -11016.4227 1502.4507 0.0000 0.0000 1790.3691 -7723.6029 301.5243 -9513.9719 -7722.8099 300.3323 -11.5241 116.2335 30632.5395 2.8811 2.6246
ENERGY: 1200000 0.0000 0.0000 0.0000 0.0000 -10698.3133 1369.3682 0.0000 0.0000 1751.4763 -7577.4687 294.9742 -9328.9451 -7570.7386 300.3163 -745.3373 -630.2935 31303.6845 3.2897 3.2309
ENERGY: 1500000 0.0000 0.0000 0.0000 0.0000 -10861.4168 1397.7342 0.0000 0.0000 1712.2036 -7751.4790 288.3601 -9463.6826 -7747.2983 299.5574 -828.9732 -735.4917 31131.0302 3.0461 2.9816
TCL: Running FEP window   5: Lambda1 0.7999999999999998 Lambda2 0.7499999999999998 [dLambda -0.050000000000000044]
TCL: Setting parameter firsttimestep to 0
TCL: Setting parameter alchLambda to 0.7999999999999998
Info: NONBONDED TABLE R-SQUARED SPACING: 0.0625
Info: NONBONDED TABLE SIZE: 705 POINTS
TCL: Setting parameter alchLambda2 to 0.7499999999999998
Info: NONBONDED TABLE R-SQUARED SPACING: 0.0625
Info: NONBONDED TABLE SIZE: 705 POINTS
TCL: Running for 1500000 steps
ETITLE: TS BOND ANGLE DIHED IMPRP ELECT VDW BOUNDARY MISC KINETIC TOTAL TEMP POTENTIAL TOTAL3 TEMPAVG PRESSURE GPRESSURE VOLUME PRESSAVG GPRESSAVG
ENERGY: 0 0.0000 0.0000 0.0000 0.0000 -10861.3537 1397.3832 0.0000 0.0000 1711.2835 -7752.6871 288.2052 -9463.9705 -7749.0784 288.2052 -831.6085 -749.1977 31131.0302 -831.6085 -749.1977
ENERGY: 300000 0.0000 0.0000 0.0000 0.0000 -10814.8748 1427.7810 0.0000 0.0000 1742.6136 -7644.4802 293.4816 -9387.0938 -7641.2584 300.1844 -425.9217 -348.9044 31325.9829 2.9209 2.8293
ENERGY: 600000 0.0000 0.0000 0.0000 0.0000 -10839.0824 1433.5912 0.0000 0.0000 1817.1444 -7588.3468 306.0337 -9405.4912 -7584.3336 299.3234 -58.6316 67.4636 30603.4208 3.2985 3.2924
ENERGY: 900000 0.0000 0.0000 0.0000 0.0000 -10846.0999 1501.6748 0.0000 0.0000 1764.8468 -7579.5784 297.2260 -9344.4251 -7577.9623 300.2233 403.6521 447.0106 31071.8081 3.3460 3.3029
ENERGY: 1200000 0.0000 0.0000 0.0000 0.0000 -10744.0608 1406.9179 0.0000 0.0000 1744.2092 -7592.9337 293.7503 -9337.1429 -7589.0489 300.0712 -432.0069 -367.7550 31532.6822 3.7601 3.7623
ENERGY: 1500000 0.0000 0.0000 0.0000 0.0000 -10810.7264 1422.8401 0.0000 0.0000 1772.6879 -7615.1984 298.5466 -9387.8863 -7612.3171 300.6640 -314.3673 -225.0263 30980.3003 2.9927 2.8608
TCL: Running FEP window   6: Lambda1 0.7499999999999998 Lambda2 0.6999999999999997 [dLambda -0.050000000000000044]
TCL: Setting parameter firsttimestep to 0
TCL: Setting parameter alchLambda to 0.7499999999999998
Info: NONBONDED TABLE R-SQUARED SPACING: 0.0625
Info: NONBONDED TABLE SIZE: 705 POINTS
TCL: Setting parameter alchLambda2 to 0.6999999999999997
Info: NONBONDED TABLE R-SQUARED SPACING: 0.0625
Info: NONBONDED TABLE SIZE: 705 POINTS
TCL: Running for 1500000 steps
ETITLE: TS BOND ANGLE DIHED IMPRP ELECT VDW BOUNDARY MISC KINETIC TOTAL TEMP POTENTIAL TOTAL3 TEMPAVG PRESSURE GPRESSURE VOLUME PRESSAVG GPRESSAVG
ENERGY: 0 0.0000 0.0000 0.0000 0.0000 -10810.7226 1422.9686 0.0000 0.0000 1771.8100 -7615.9439 298.3987 -9387.7539 -7613.0350 298.3987 -319.5291 -232.5315 30980.3003 -319.5291 -232.5315
ENERGY: 200000 0.0000 0.0000 0.0000 0.0000 -10825.1383 1436.5016 0.0000 0.0000 1795.3708 -7593.2659 302.3667 -9388.6367 -7590.3972 300.5130 -78.9302 72.5801 30574.8231 2.8933 2.9260
ENERGY: 400000 0.0000 0.0000 0.0000 0.0000 -10782.0678 1435.9221 0.0000 0.0000 1818.9970 -7527.1487 306.3457 -9346.1457 -7523.6341 299.8110 38.8369 108.1781 30963.9040 1.2906 1.2329
ENERGY: 600000 0.0000 0.0000 0.0000 0.0000 -10857.0682 1440.1634 0.0000 0.0000 1753.3373 -7663.5675 295.2876 -9416.9048 -7658.1934 299.8526 -1.8738 17.7646 30500.3184 3.3662 3.4054
ENERGY: 800000 0.0000 0.0000 0.0000 0.0000 -10781.5793 1387.1354 0.0000 0.0000 1743.2667 -7651.1772 293.5916 -9394.4439 -7646.2178 299.8069 -682.7671 -618.5847 31272.5331 3.2121 3.2000
ENERGY: 1000000 0.0000 0.0000 0.0000 0.0000 -11012.3669 1511.2811 0.0000 0.0000 1793.5226 -7707.5633 302.0554 -9501.0858 -7703.9281 300.7909 480.4622 525.2216 30339.5755 3.4342 3.4954
