Info: SIMULATION PARAMETERS:
Info: TIMESTEP               2
Info: NUMBER OF STEPS        0
Info: STEPS PER CYCLE        10
Info: PERIODIC CELL BASIS 1  41.123 0 0
Info: PERIODIC CELL BASIS 2  0 43.772 0
Info: PERIODIC CELL BASIS 3  0 0 41.935
Info: PERIODIC CELL CENTER   0 0 0
Info: WRAPPING WATERS AROUND PERIODIC BOUNDARIES ON OUTPUT.
Info: WRAPPING ALL CLUSTERS AROUND PERIODIC BOUNDARIES ON OUTPUT.
Info: FIRST LDB TIMESTEP     50
Info: LAST LDB TIMESTEP     -1
Info: HOM BACKGROUND SCALING 1
Info: PME BACKGROUND SCALING 1
Info: MIN ATOMS PER PATCH    40
Info: EMPTY PATCH LOAD       40 ATOMS
Info: INITIAL TEMPERATURE    300
Info: CENTER OF MASS MOVING INITIALLY? NO
Info: DIELECTRIC             1
Info: EXCLUDE                SCALED ONE-FOUR
Info: 1-4 ELECTROSTATICS SCALED BY 0.833333
Info: MODIFIED 1-4 VDW PARAMETERS WILL BE USED
Info: DCD FILENAME           mobley_7676709_min.dcd
Info: DCD FREQUENCY          5000
Info: DCD FIRST STEP         5000
Info: DCD FILE WILL CONTAIN UNIT CELL DATA
Info: XST FILENAME           mobley_7676709_min.xst
Info: XST FREQUENCY          5000
Info: NO VELOCITY DCD OUTPUT
Info: NO FORCE DCD OUTPUT
Info: OUTPUT FILENAME        mobley_7676709_min
Info: BINARY OUTPUT FILES WILL BE USED
Info: RESTART FILENAME       mobley_7676709_min.restart
Info: RESTART FREQUENCY      5000
Info: BINARY RESTART FILES WILL BE USED
Info: CUTOFF                 9
Info: PAIRLIST DISTANCE      11
Info: PAIRLIST SHRINK RATE   0.01
Info: PAIRLIST GROW RATE     0.01
Info: PAIRLIST TRIGGER       0.3
Info: PAIRLISTS PER CYCLE    2
Info: PAIRLISTS ENABLED
Info: MARGIN                 8
Info: HYDROGEN GROUP CUTOFF  2.5
Info: PATCH DIMENSION        21.5
Info: ENERGY OUTPUT STEPS    5000
Info: ENERGY EVALUATION STEPS    5000
Info: OUTPUT ENERGY PRECISION 4
Info: CROSSTERM ENERGY INCLUDED IN DIHEDRAL
Info: TIMING OUTPUT STEPS    50000
Info: PRESSURE OUTPUT STEPS  5000
Info: LANGEVIN DYNAMICS ACTIVE
Info: LANGEVIN TEMPERATURE   300
Info: LANGEVIN USING BBK INTEGRATOR
Info: LANGEVIN DAMPING COEFFICIENT IS 1 INVERSE PS
Info: LANGEVIN DYNAMICS APPLIED TO HYDROGENS
Info: LANGEVIN PISTON PRESSURE CONTROL ACTIVE
Info:        TARGET PRESSURE IS 1.01325 BAR
Info:     OSCILLATION PERIOD IS 50 FS
Info:             DECAY TIME IS 25 FS
Info:     PISTON TEMPERATURE IS 300 K
Info:       PRESSURE CONTROL IS GROUP-BASED
Info:    INITIAL STRAIN RATE IS 0 0 0
Info:       CELL FLUCTUATION IS ISOTROPIC
Info: PARTICLE MESH EWALD (PME) ACTIVE
Info: PME TOLERANCE               1e-06
Info: PME EWALD COEFFICIENT       0.348832
Info: PME INTERPOLATION ORDER     4
Info: PME GRID DIMENSIONS         44 44 44
Info: PME MAXIMUM GRID SPACING    1
Info: FULL ELECTROSTATIC EVALUATION FREQUENCY      2
Info: USING VERLET I (r-RESPA) MTS SCHEME.
Info: C1 SPLITTING OF LONG RANGE ELECTROSTATICS
Info: PLACING ATOMS IN PATCHES BY HYDROGEN GROUPS
Info: RIGID BONDS TO HYDROGEN : ALL
Info:         ERROR TOLERANCE : 1e-08
Info:          MAX ITERATIONS : 100
Info: RIGID WATER USING SETTLE ALGORITHM
Info: RANDOM NUMBER SEED     1741407034
Info: USE HYDROGEN BONDS?    NO
Info: Using AMBER format force field!
Info: AMBER PARM FILE        mobley_7676709.prmtop
Info: COORDINATE PDB         mobley_7676709.pdb
Info: Exclusions will be read from PARM file!
Info: SCNB (VDW SCALING)     2
Info: USING ARITHMETIC MEAN TO COMBINE L-J SIGMA PARAMETERS
Info: SUMMARY OF PARAMETERS:
Info: 10 BONDS
Info: 15 ANGLES
Info:   15 HARMONIC
Info:   0 COSINE-BASED
Info: 19 DIHEDRAL
Info: 0 IMPROPER
Info: 0 CROSSTERM
Info: 0 VDW
Info: 28 VDW_PAIRS
Info: 0 NBTHOLE_PAIRS
Info: STRUCTURE SUMMARY:
Info: 5433 ATOMS
Info: 5433 BONDS
Info: 51 ANGLES
Info: 83 DIHEDRALS
Info: 0 IMPROPERS
Info: 0 CROSSTERMS
Info: 5552 EXCLUSIONS
Info: 5422 RIGID BONDS
Info: 10877 DEGREES OF FREEDOM
Info: 1813 HYDROGEN GROUPS
Info: 4 ATOMS IN LARGEST HYDROGEN GROUP
Info: 1813 MIGRATION GROUPS
Info: 4 ATOMS IN LARGEST MIGRATION GROUP
Info: TOTAL MASS = 32617.1 amu
Info: TOTAL CHARGE = -0.00029996 e
Info: MASS DENSITY = 0.71754 g/cm^3
Info: ATOM DENSITY = 0.071975 atoms/A^3
Info: ADDED 0 IMPLICIT EXCLUSIONS
Info: NONBONDED TABLE R-SQUARED SPACING: 0.0625
Info: NONBONDED TABLE SIZE: 705 POINTS
Info: REMOVING COM VELOCITY -0.0715392 0.0178826 0.11035
TCL: Minimizing for 2000 steps
ETITLE: TS BOND ANGLE DIHED IMPRP ELECT VDW BOUNDARY MISC KINETIC TOTAL TEMP POTENTIAL TOTAL3 TEMPAVG PRESSURE GPRESSURE VOLUME PRESSAVG GPRESSAVG
ENERGY: 0 0.1804 1.8116 22.3830 0.0000 -16935.5489 1922.8533 0.0000 0.0000 0.0000 -14988.3205 0.0000 -14988.3205 -14988.3205 0.0000 11184.4706 -15214.2908 75484.5078 11184.4706 -15214.2908
ENERGY: 400 5.4619 4.9254 19.9456 0.0000 -22698.0352 3267.4238 0.0000 0.0000 0.0000 -19400.2784 0.0000 -19400.2784 -19400.2784 0.0000 15551.1752 9302.3480 75484.5078 15551.1752 9302.3480
ENERGY: 800 1.9623 3.8941 18.7643 0.0000 -23745.7185 3729.7042 0.0000 0.0000 0.0000 -19991.3937 0.0000 -19991.3937 -19991.3937 0.0000 17441.5695 10939.5628 75484.5078 17441.5695 10939.5628
ENERGY: 1200 8.1453 4.1069 18.3644 0.0000 -24445.5307 4123.5748 0.0000 0.0000 0.0000 -20291.3393 0.0000 -20291.3393 -20291.3393 0.0000 19089.4368 12304.6686 75484.5078 19089.4368 12304.6686
ENERGY: 1600 3.8636 3.8076 18.1959 0.0000 -24679.6882 4196.7727 0.0000 0.0000 0.0000 -20457.0484 0.0000 -20457.0484 -20457.0484 0.0000 19507.7218 12804.0839 75484.5078 19507.7218 12804.0839
ENERGY: 2000 0.6900 2.8321 18.1849 0.0000 -24844.6028 4278.2393 0.0000 0.0000 0.0000 -20544.6566 0.0000 -20544.6566 -20544.6566 0.0000 19874.2695 13261.8991 75484.5078 19874.2695 13261.8991
TCL: Exiting due to exit command.
Info: NAMD 3.0.1 for Linux-x86_64-multicore
Info: Please visit http://www.ks.uiuc.edu/Research/namd/
Info: for updates, documentation, and support information.
Info: Please cite Phillips et al., J. Chem. Phys. 153:044130 (2020) doi:10.1063/5.0014475
Info: in all publications reporting results obtained with NAMD.
Info: Based on Charm++/Converse 80000 for multicore-linux-x86_64-gcc
Info: Built Mon Oct 14 11:11:06 CDT 2024 by dhardy on athine.ks.uiuc.edu
Info: 1 NAMD  3.0.1  Linux-x86_64-multicore  16    k025  z5358697
Info: Running on 16 processors, 1 nodes, 1 physical nodes.
Info: CPU topology information available.
Info: Charm++/Converse parallel runtime startup completed at 0.00794135 s
Info: 1043.46 MB of memory in use based on /proc/self/stat
Info: Configuration file is mobley_7676709_equil.namd
Info: Working in the current directory /srv/scratch/z5358697/prod_prep_9/7676709
TCL: Running 25000 steps at 30 kelvin.
TCL: Suspending until startup complete.
Info: SIMULATION PARAMETERS:
Info: TIMESTEP               2
Info: NUMBER OF STEPS        0
Info: STEPS PER CYCLE        10
Info: PERIODIC CELL BASIS 1  41.123 0 0
Info: PERIODIC CELL BASIS 2  0 43.772 0
Info: PERIODIC CELL BASIS 3  0 0 41.935
Info: PERIODIC CELL CENTER   0 0 0
Info: WRAPPING WATERS AROUND PERIODIC BOUNDARIES ON OUTPUT.
Info: WRAPPING ALL CLUSTERS AROUND PERIODIC BOUNDARIES ON OUTPUT.
Info: FIRST LDB TIMESTEP     50
Info: LAST LDB TIMESTEP     -1
Info: HOM BACKGROUND SCALING 1
Info: PME BACKGROUND SCALING 1
Info: MIN ATOMS PER PATCH    40
Info: EMPTY PATCH LOAD       40 ATOMS
Info: INITIAL TEMPERATURE    300
Info: CENTER OF MASS MOVING INITIALLY? NO
Info: DIELECTRIC             1
Info: EXCLUDE                SCALED ONE-FOUR
Info: 1-4 ELECTROSTATICS SCALED BY 0.833333
Info: MODIFIED 1-4 VDW PARAMETERS WILL BE USED
Info: DCD FILENAME           mobley_7676709_equil.dcd
Info: DCD FREQUENCY          5000
Info: DCD FIRST STEP         5000
Info: DCD FILE WILL CONTAIN UNIT CELL DATA
Info: XST FILENAME           mobley_7676709_equil.xst
Info: XST FREQUENCY          5000
Info: NO VELOCITY DCD OUTPUT
Info: NO FORCE DCD OUTPUT
Info: OUTPUT FILENAME        mobley_7676709_equil
Info: BINARY OUTPUT FILES WILL BE USED
Info: RESTART FILENAME       mobley_7676709_equil.restart
Info: RESTART FREQUENCY      5000
Info: BINARY RESTART FILES WILL BE USED
Info: CUTOFF                 9
Info: PAIRLIST DISTANCE      11
Info: PAIRLIST SHRINK RATE   0.01
Info: PAIRLIST GROW RATE     0.01
Info: PAIRLIST TRIGGER       0.3
Info: PAIRLISTS PER CYCLE    2
Info: PAIRLISTS ENABLED
Info: MARGIN                 8
Info: HYDROGEN GROUP CUTOFF  2.5
Info: PATCH DIMENSION        21.5
Info: ENERGY OUTPUT STEPS    5000
Info: ENERGY EVALUATION STEPS    5000
Info: OUTPUT ENERGY PRECISION 4
Info: CROSSTERM ENERGY INCLUDED IN DIHEDRAL
Info: TIMING OUTPUT STEPS    50000
Info: PRESSURE OUTPUT STEPS  5000
Info: LANGEVIN DYNAMICS ACTIVE
Info: LANGEVIN TEMPERATURE   30
Info: LANGEVIN USING BBK INTEGRATOR
Info: LANGEVIN DAMPING COEFFICIENT IS 1 INVERSE PS
Info: LANGEVIN DYNAMICS APPLIED TO HYDROGENS
Info: LANGEVIN PISTON PRESSURE CONTROL ACTIVE
Info:        TARGET PRESSURE IS 1.01325 BAR
Info:     OSCILLATION PERIOD IS 50 FS
Info:             DECAY TIME IS 25 FS
Info:     PISTON TEMPERATURE IS 300 K
Info:       PRESSURE CONTROL IS GROUP-BASED
Info:    INITIAL STRAIN RATE IS 0 0 0
Info:       CELL FLUCTUATION IS ISOTROPIC
Info: PARTICLE MESH EWALD (PME) ACTIVE
Info: PME TOLERANCE               1e-06
Info: PME EWALD COEFFICIENT       0.348832
Info: PME INTERPOLATION ORDER     4
Info: PME GRID DIMENSIONS         44 44 44
Info: PME MAXIMUM GRID SPACING    1
Info: FULL ELECTROSTATIC EVALUATION FREQUENCY      2
Info: USING VERLET I (r-RESPA) MTS SCHEME.
Info: C1 SPLITTING OF LONG RANGE ELECTROSTATICS
Info: PLACING ATOMS IN PATCHES BY HYDROGEN GROUPS
Info: RIGID BONDS TO HYDROGEN : ALL
Info:         ERROR TOLERANCE : 1e-08
Info:          MAX ITERATIONS : 100
Info: RIGID WATER USING SETTLE ALGORITHM
Info: RANDOM NUMBER SEED     1741407049
Info: USE HYDROGEN BONDS?    NO
Info: Using AMBER format force field!
Info: AMBER PARM FILE        mobley_7676709.prmtop
Info: COORDINATE PDB         mobley_7676709.pdb
Info: Exclusions will be read from PARM file!
Info: SCNB (VDW SCALING)     2
Info: USING ARITHMETIC MEAN TO COMBINE L-J SIGMA PARAMETERS
Info: BINARY COORDINATES     mobley_7676709_min.coor
Info: SUMMARY OF PARAMETERS:
Info: 10 BONDS
Info: 15 ANGLES
Info:   15 HARMONIC
Info:   0 COSINE-BASED
Info: 19 DIHEDRAL
Info: 0 IMPROPER
Info: 0 CROSSTERM
Info: 0 VDW
Info: 28 VDW_PAIRS
Info: 0 NBTHOLE_PAIRS
Info: STRUCTURE SUMMARY:
Info: 5433 ATOMS
Info: 5433 BONDS
Info: 51 ANGLES
Info: 83 DIHEDRALS
Info: 0 IMPROPERS
Info: 0 CROSSTERMS
Info: 5552 EXCLUSIONS
Info: 5422 RIGID BONDS
Info: 10877 DEGREES OF FREEDOM
Info: 1813 HYDROGEN GROUPS
Info: 4 ATOMS IN LARGEST HYDROGEN GROUP
Info: 1813 MIGRATION GROUPS
Info: 4 ATOMS IN LARGEST MIGRATION GROUP
Info: TOTAL MASS = 32617.1 amu
Info: TOTAL CHARGE = -0.00029996 e
Info: MASS DENSITY = 0.71754 g/cm^3
Info: ATOM DENSITY = 0.071975 atoms/A^3
Info: ADDED 0 IMPLICIT EXCLUSIONS
Info: NONBONDED TABLE R-SQUARED SPACING: 0.0625
Info: NONBONDED TABLE SIZE: 705 POINTS
Info: REMOVING COM VELOCITY 0.0344732 -0.0341643 -0.0837462
TCL: Running for 25000 steps
ETITLE: TS BOND ANGLE DIHED IMPRP ELECT VDW BOUNDARY MISC KINETIC TOTAL TEMP POTENTIAL TOTAL3 TEMPAVG PRESSURE GPRESSURE VOLUME PRESSAVG GPRESSAVG
ENERGY: 0 0.6900 2.8321 18.1849 0.0000 -24844.6028 4278.2393 0.0000 0.0000 3261.9953 -17282.6613 301.8315 -20544.6566 -17282.0266 301.8315 246.8571 279.6593 75484.5078 246.8571 279.6593
ENERGY: 5000 0.4542 3.5939 18.9001 0.0000 -26144.1852 4619.9761 0.0000 0.0000 323.2695 -21177.9914 29.9120 -21501.2609 -21177.0529 48.0879 494.8142 562.1437 52587.9711 2.6037 2.7468
ENERGY: 10000 0.9933 4.1065 18.4734 0.0000 -25935.4007 4370.1033 0.0000 0.0000 324.1527 -21217.5714 29.9938 -21541.7241 -21216.7944 30.1684 -761.6905 -680.9676 52806.6921 4.2888 4.2426
ENERGY: 15000 0.8649 4.4800 18.5356 0.0000 -25959.6491 4368.4277 0.0000 0.0000 325.3136 -21242.0273 30.1012 -21567.3408 -21241.0131 30.3422 -688.7070 -638.0751 52476.7240 4.6147 4.3683
ENERGY: 20000 0.9912 5.1220 17.7690 0.0000 -26083.0239 4452.9770 0.0000 0.0000 320.3374 -21285.8274 29.6407 -21606.1648 -21284.8492 29.9892 -373.5680 -295.6578 52264.4523 5.1941 5.3487
ENERGY: 25000 0.4349 4.2876 18.7591 0.0000 -26149.4037 4517.1985 0.0000 0.0000 317.5066 -21291.2170 29.3788 -21608.7236 -21290.3159 29.9677 -88.7484 -9.0116 52197.6089 2.0895 2.1296
TCL: Running 25000 steps at 60 kelvin.
TCL: Setting parameter langevinTemp to 60
TCL: Running for 25000 steps
ETITLE: TS BOND ANGLE DIHED IMPRP ELECT VDW BOUNDARY MISC KINETIC TOTAL TEMP POTENTIAL TOTAL3 TEMPAVG PRESSURE GPRESSURE VOLUME PRESSAVG GPRESSAVG
ENERGY: 25000 0.4349 4.2876 18.7591 0.0000 -26149.4037 4517.1985 0.0000 0.0000 317.3386 -21291.3851 29.3632 -21608.7236 -21290.6990 29.3632 -74.5424 -8.9176 52197.6089 -74.5424 -8.9176
ENERGY: 30000 1.2989 4.0763 19.0160 0.0000 -25648.7836 4314.8734 0.0000 0.0000 648.5372 -20660.9819 60.0090 -21309.5191 -20659.2553 57.2018 -362.7669 -300.2308 52656.5378 4.9189 4.5751
ENERGY: 35000 1.9419 5.3181 18.1860 0.0000 -25861.3807 4484.9339 0.0000 0.0000 649.0117 -20701.9890 60.0529 -21351.0007 -20700.7148 60.1014 301.2109 375.2534 52433.2922 4.0206 3.7786
ENERGY: 40000 2.3823 5.3911 18.1819 0.0000 -25837.7702 4410.4328 0.0000 0.0000 655.0861 -20746.2960 60.6149 -21401.3821 -20744.0027 60.4349 -152.9831 -74.6297 52567.2711 3.2087 2.9801
ENERGY: 45000 1.2948 5.5116 18.0824 0.0000 -25800.3496 4367.3451 0.0000 0.0000 649.2036 -20758.9121 60.0706 -21408.1157 -20757.3104 60.0755 -346.3845 -269.9682 52566.2321 2.3711 2.5704
ENERGY: 50000 1.1961 4.5301 18.3977 0.0000 -25864.1657 4444.2088 0.0000 0.0000 638.5151 -20757.3180 59.0816 -21395.8331 -20755.2836 60.1012 59.2821 102.3903 52413.3164 7.4298 7.2614
TCL: Running 25000 steps at 90 kelvin.
TCL: Setting parameter langevinTemp to 90
TCL: Running for 25000 steps
ETITLE: TS BOND ANGLE DIHED IMPRP ELECT VDW BOUNDARY MISC KINETIC TOTAL TEMP POTENTIAL TOTAL3 TEMPAVG PRESSURE GPRESSURE VOLUME PRESSAVG GPRESSAVG
ENERGY: 50000 1.1961 4.5301 18.3977 0.0000 -25864.1657 4444.2088 0.0000 0.0000 638.1864 -20757.6467 59.0512 -21395.8331 -20756.3997 59.0512 28.8357 102.2243 52413.3164 28.8357 102.2243
ENERGY: 55000 1.4367 5.6608 18.8498 0.0000 -25419.8611 4289.5548 0.0000 0.0000 981.5084 -20122.8506 90.8187 -21104.3590 -20120.4093 87.7517 -74.0984 -20.5706 52901.9193 1.7056 1.8640
ENERGY: 60000 2.2273 7.1443 18.6227 0.0000 -25361.3571 4212.5087 0.0000 0.0000 989.4204 -20131.4338 91.5508 -21120.8541 -20128.9412 90.0713 -511.8328 -471.0074 53048.5852 5.8218 6.1646
ENERGY: 65000 1.2913 6.5106 18.4424 0.0000 -25472.5869 4273.7451 0.0000 0.0000 983.0801 -20189.5173 90.9641 -21172.5975 -20186.9349 90.8157 -300.0926 -225.1297 52865.4882 3.3723 3.3633
ENERGY: 70000 0.5804 6.8872 18.1705 0.0000 -25496.8549 4315.3533 0.0000 0.0000 969.3118 -20186.5517 89.6902 -21155.8635 -20185.1844 89.9099 -116.5738 -59.1235 52986.9700 5.9650 5.8252
ENERGY: 75000 0.9704 8.7867 18.3669 0.0000 -25584.1703 4346.8575 0.0000 0.0000 973.1227 -20236.0660 90.0428 -21209.1888 -20233.3410 90.4613 -38.7898 13.8668 52818.0234 0.4365 0.6416
TCL: Running 25000 steps at 120 kelvin.
TCL: Setting parameter langevinTemp to 120
TCL: Running for 25000 steps
ETITLE: TS BOND ANGLE DIHED IMPRP ELECT VDW BOUNDARY MISC KINETIC TOTAL TEMP POTENTIAL TOTAL3 TEMPAVG PRESSURE GPRESSURE VOLUME PRESSAVG GPRESSAVG
ENERGY: 75000 0.9704 8.7867 18.3669 0.0000 -25584.1703 4346.8575 0.0000 0.0000 972.6379 -20236.5509 89.9979 -21209.1888 -20234.6792 89.9979 -48.2050 14.1044 52818.0234 -48.2050 14.1044
ENERGY: 80000 2.1745 5.6692 19.4125 0.0000 -25045.0552 4199.5022 0.0000 0.0000 1331.1896 -19487.1072 123.1746 -20818.2968 -19482.5147 117.1084 -78.2780 -29.2038 53439.8162 -0.6628 -0.9230
ENERGY: 85000 2.0025 6.5235 19.3104 0.0000 -25016.1030 4114.6967 0.0000 0.0000 1306.3477 -19567.2223 120.8760 -20873.5700 -19563.6568 120.3404 -504.0747 -451.7251 53269.7449 5.6225 5.5013
ENERGY: 90000 1.5611 7.0956 19.9730 0.0000 -25077.5988 4144.3128 0.0000 0.0000 1302.1778 -19602.4785 120.4901 -20904.6562 -19598.3131 120.4026 -333.9252 -291.8534 53130.9380 3.0327 2.7398
ENERGY: 95000 1.9345 5.0883 19.7254 0.0000 -25078.6349 4114.3668 0.0000 0.0000 1306.7339 -19630.7860 120.9117 -20937.5198 -19627.6073 120.9990 -703.6150 -638.9122 53362.2682 0.1588 0.1536
ENERGY: 100000 1.8423 7.2134 19.3340 0.0000 -25437.6721 4388.2682 0.0000 0.0000 1300.5795 -19720.4347 120.3423 -21021.0141 -19717.5384 119.2231 493.9543 553.7187 52752.2182 1.5640 0.8159
TCL: Running 25000 steps at 150 kelvin.
TCL: Setting parameter langevinTemp to 150
TCL: Running for 25000 steps
ETITLE: TS BOND ANGLE DIHED IMPRP ELECT VDW BOUNDARY MISC KINETIC TOTAL TEMP POTENTIAL TOTAL3 TEMPAVG PRESSURE GPRESSURE VOLUME PRESSAVG GPRESSAVG
ENERGY: 100000 1.8423 7.2134 19.3340 0.0000 -25437.6721 4388.2682 0.0000 0.0000 1299.9226 -19721.0915 120.2815 -21021.0141 -19718.6990 120.2815 492.4453 553.2238 52752.2182 492.4453 553.2238
ENERGY: 105000 1.4887 7.6075 22.3402 0.0000 -24736.0471 4107.5951 0.0000 0.0000 1615.9456 -18981.0701 149.5230 -20597.0157 -18976.0169 147.4618 115.0268 164.3692 53222.0381 6.3437 6.7095
ENERGY: 110000 2.9397 8.7998 19.0752 0.0000 -24616.3610 4042.5669 0.0000 0.0000 1609.3785 -18933.6008 148.9153 -20542.9794 -18930.3062 151.0485 -279.7283 -191.2916 53476.6966 -2.0573 -1.9765
ENERGY: 115000 1.3635 7.3641 20.1409 0.0000 -24643.3682 3984.7611 0.0000 0.0000 1650.0118 -18979.7268 152.6751 -20629.7386 -18976.2301 150.1477 -569.6019 -517.0127 53513.6053 2.7610 2.6253
ENERGY: 120000 2.6535 7.3531 19.4701 0.0000 -24707.1668 4070.5623 0.0000 0.0000 1646.1477 -18960.9800 152.3176 -20607.1277 -18955.0072 149.4636 15.8279 83.7316 52937.8337 4.8781 5.2593
ENERGY: 125000 1.4091 8.9623 19.5277 0.0000 -24935.1645 4285.8494 0.0000 0.0000 1633.2018 -18986.2142 151.1197 -20619.4160 -18981.5939 150.3235 1015.5802 1051.8708 52645.3300 -1.6860 -1.3885
TCL: Running 50000 steps at 180 kelvin.
TCL: Setting parameter langevinTemp to 180
TCL: Running for 50000 steps
ETITLE: TS BOND ANGLE DIHED IMPRP ELECT VDW BOUNDARY MISC KINETIC TOTAL TEMP POTENTIAL TOTAL3 TEMPAVG PRESSURE GPRESSURE VOLUME PRESSAVG GPRESSAVG
ENERGY: 125000 1.4091 8.9623 19.5277 0.0000 -24935.1645 4285.8494 0.0000 0.0000 1632.3743 -18987.0417 151.0431 -20619.4160 -18983.9933 151.0431 1005.6359 1052.3424 52645.3300 1005.6359 1052.3424
ENERGY: 135000 2.0141 8.3363 18.7454 0.0000 -24059.6420 3896.8872 0.0000 0.0000 1934.7877 -18198.8714 179.0254 -20133.6591 -18195.2496 180.8295 92.1370 157.7156 53242.0401 2.0345 1.6790
ENERGY: 145000 3.4583 10.0457 21.5104 0.0000 -24170.4622 3949.4010 0.0000 0.0000 1903.2419 -18282.8050 176.1064 -20186.0468 -18280.0783 180.3030 183.5503 251.4232 53066.3752 0.7320 0.9658
ENERGY: 155000 1.2878 6.7249 18.8995 0.0000 -24148.0925 3928.6952 0.0000 0.0000 1939.4113 -18253.0738 179.4532 -20192.4850 -18249.2205 181.0942 269.5359 315.9885 52696.9200 3.0930 2.4563
ENERGY: 165000 1.5892 13.1080 18.8077 0.0000 -24101.1955 3906.5281 0.0000 0.0000 1928.7026 -18232.4600 178.4623 -20161.1626 -18228.8151 180.9676 144.1592 214.9859 53011.3040 -1.3975 -0.9862
ENERGY: 175000 3.4329 8.4148 19.2015 0.0000 -24132.2044 3910.0183 0.0000 0.0000 1930.1633 -18260.9737 178.5975 -20191.1370 -18255.8148 180.4322 12.7973 92.0827 53027.0851 -0.4638 -0.2592
TCL: Running 50000 steps at 210 kelvin.
TCL: Setting parameter langevinTemp to 210
TCL: Running for 50000 steps
ETITLE: TS BOND ANGLE DIHED IMPRP ELECT VDW BOUNDARY MISC KINETIC TOTAL TEMP POTENTIAL TOTAL3 TEMPAVG PRESSURE GPRESSURE VOLUME PRESSAVG GPRESSAVG
ENERGY: 175000 3.4329 8.4148 19.2015 0.0000 -24132.2044 3910.0183 0.0000 0.0000 1929.1515 -18261.9854 178.5039 -20191.1370 -18258.0692 178.5039 23.4152 92.6779 53027.0851 23.4152 92.6779
ENERGY: 185000 4.0173 9.3310 18.8743 0.0000 -22771.1663 3333.3212 0.0000 0.0000 2266.1101 -17139.5125 209.6825 -19405.6225 -17131.5204 210.2156 -901.7496 -839.2308 53204.4052 5.8817 5.8949
ENERGY: 195000 4.6303 9.7522 19.9552 0.0000 -23132.1808 3744.2691 0.0000 0.0000 2267.1631 -17086.4110 209.7800 -19353.5741 -17083.3288 209.8402 994.2954 1088.2612 52667.5354 4.7538 4.7717
ENERGY: 205000 2.2830 10.4892 20.3256 0.0000 -22772.5711 3422.3033 0.0000 0.0000 2245.5994 -17071.5707 207.7847 -19317.1701 -17067.4146 210.1531 -308.5004 -236.9005 53018.2958 4.8651 5.0239
ENERGY: 215000 4.0768 8.5091 19.9677 0.0000 -22820.5355 3480.5976 0.0000 0.0000 2257.4970 -17049.8873 208.8856 -19307.3843 -17046.1652 209.1787 -288.3840 -178.7914 53331.7548 2.6964 2.5660
ENERGY: 225000 2.0738 12.3184 19.7844 0.0000 -22825.1361 3496.3769 0.0000 0.0000 2256.7799 -17037.8027 208.8192 -19294.5826 -17032.3090 211.6330 135.1884 269.5504 52481.5095 -2.1495 -2.1189
TCL: Running 50000 steps at 240 kelvin.
TCL: Setting parameter langevinTemp to 240
TCL: Running for 50000 steps
ETITLE: TS BOND ANGLE DIHED IMPRP ELECT VDW BOUNDARY MISC KINETIC TOTAL TEMP POTENTIAL TOTAL3 TEMPAVG PRESSURE GPRESSURE VOLUME PRESSAVG GPRESSAVG
ENERGY: 225000 2.0738 12.3184 19.7844 0.0000 -22825.1361 3496.3769 0.0000 0.0000 2255.6359 -17038.9468 208.7134 -19294.5826 -17035.1345 208.7134 182.7667 270.2223 52481.5095 182.7667 270.2223
ENERGY: 235000 2.5754 12.2883 20.5393 0.0000 -21728.5651 3159.0711 0.0000 0.0000 2577.2192 -15956.8719 238.4694 -18534.0911 -15952.9460 241.4434 158.7787 233.8040 53029.4455 3.5408 3.3851
ENERGY: 245000 3.4128 15.1851 21.0701 0.0000 -21821.0130 3282.0360 0.0000 0.0000 2638.6516 -15860.6573 244.1537 -18499.3089 -15854.2541 239.7609 424.4098 514.7929 53798.5247 1.6920 2.2115
ENERGY: 255000 3.1477 8.6249 20.1854 0.0000 -21661.6821 3107.1851 0.0000 0.0000 2524.1939 -15998.3452 233.5630 -18522.5391 -15990.8665 240.4694 -345.0628 -271.5360 53826.5834 1.8367 1.6151
ENERGY: 265000 1.7260 10.1786 17.3560 0.0000 -21522.0378 3012.0673 0.0000 0.0000 2572.5319 -15908.1780 238.0357 -18480.7099 -15902.1277 239.2929 -527.9704 -471.7145 53693.4807 0.6298 1.2154
ENERGY: 275000 4.8384 13.6267 21.5075 0.0000 -21639.0664 3045.1730 0.0000 0.0000 2580.4538 -15973.4670 238.7687 -18553.9208 -15968.1957 240.3444 -745.2336 -644.3495 53967.5736 1.3382 1.5367
TCL: Running 50000 steps at 270 kelvin.
TCL: Setting parameter langevinTemp to 270
TCL: Running for 50000 steps
ETITLE: TS BOND ANGLE DIHED IMPRP ELECT VDW BOUNDARY MISC KINETIC TOTAL TEMP POTENTIAL TOTAL3 TEMPAVG PRESSURE GPRESSURE VOLUME PRESSAVG GPRESSAVG
ENERGY: 275000 4.8384 13.6267 21.5075 0.0000 -21639.0664 3045.1730 0.0000 0.0000 2579.1707 -15974.7501 238.6499 -18553.9208 -15970.7834 238.6499 -726.0234 -644.1904 53967.5736 -726.0234 -644.1904
ENERGY: 285000 1.9129 10.6256 20.0980 0.0000 -20589.2571 2836.5455 0.0000 0.0000 2865.5335 -14854.5416 265.1470 -17720.0751 -14848.4446 270.2648 -194.3764 -132.8243 54763.8841 1.4800 2.0225
ENERGY: 295000 4.3531 10.7099 19.3639 0.0000 -20737.2475 2924.9805 0.0000 0.0000 2976.2534 -14801.5867 275.3919 -17777.8401 -14795.4271 269.6100 294.0958 354.6538 53993.6862 1.1965 0.6271
ENERGY: 305000 3.5548 10.6764 20.2458 0.0000 -20736.4615 2952.4229 0.0000 0.0000 2950.3423 -14799.2194 272.9943 -17749.5617 -14792.3330 270.1594 461.5920 495.7789 54096.2777 1.1757 0.6489
ENERGY: 315000 4.3263 13.4780 21.1581 0.0000 -20523.3782 2725.5162 0.0000 0.0000 2883.6568 -14875.2429 266.8240 -17758.8996 -14872.7071 270.1928 -706.1288 -582.7268 54417.7422 2.4337 2.4833
ENERGY: 325000 3.9268 16.8651 19.4994 0.0000 -20640.9558 2833.2577 0.0000 0.0000 2916.7204 -14850.6863 269.8833 -17767.4067 -14847.9938 270.6410 -267.9653 -210.9923 54446.6759 3.1216 2.6461
TCL: Running 1000000 steps at 300 kelvin.
TCL: Setting parameter langevinTemp to 300
TCL: Running for 1000000 steps
ETITLE: TS BOND ANGLE DIHED IMPRP ELECT VDW BOUNDARY MISC KINETIC TOTAL TEMP POTENTIAL TOTAL3 TEMPAVG PRESSURE GPRESSURE VOLUME PRESSAVG GPRESSAVG
ENERGY: 325000 3.9268 16.8651 19.4994 0.0000 -20640.9558 2833.2577 0.0000 0.0000 2915.2822 -14852.1245 269.7503 -17767.4067 -14847.4351 269.7503 -298.0036 -212.9046 54446.6759 -298.0036 -212.9046
ENERGY: 525000 2.7010 16.9831 20.2076 0.0000 -19527.3920 2520.1374 0.0000 0.0000 3258.3981 -13708.9648 301.4987 -16967.3629 -13703.1006 301.6736 -361.5841 -231.7503 55483.0449 1.2234 1.3679
ENERGY: 725000 6.3679 13.3949 21.8492 0.0000 -19610.4789 2620.7536 0.0000 0.0000 3188.7942 -13759.3191 295.0582 -16948.1132 -13757.1245 298.9804 -94.5107 -26.4264 56221.3174 1.4961 1.9917
ENERGY: 925000 3.7674 15.1251 17.8611 0.0000 -19957.5866 2784.3111 0.0000 0.0000 3331.5790 -13804.9429 308.2701 -17136.5219 -13797.6149 299.9551 573.7747 635.2248 55248.3802 2.5436 2.3033
ENERGY: 1125000 5.4423 12.2932 20.1473 0.0000 -19755.2295 2632.9504 0.0000 0.0000 3148.3350 -13936.0614 291.3146 -17084.3963 -13928.5963 297.7631 -201.3199 -114.3751 55641.6081 6.2829 6.0917
ENERGY: 1325000 6.7512 10.5011 21.3994 0.0000 -19606.4676 2645.6135 0.0000 0.0000 3219.2820 -13702.9203 297.8793 -16922.2024 -13696.0905 300.6994 -45.7308 36.9034 56306.9162 5.8051 5.6072
TCL: Exiting due to exit command.
