Info: SIMULATION PARAMETERS:
Info: TIMESTEP               2
Info: NUMBER OF STEPS        0
Info: STEPS PER CYCLE        10
Info: PERIODIC CELL BASIS 1  34.986 0 0
Info: PERIODIC CELL BASIS 2  0 35.411 0
Info: PERIODIC CELL BASIS 3  0 0 35.723
Info: PERIODIC CELL CENTER   0 0 0
Info: WRAPPING WATERS AROUND PERIODIC BOUNDARIES ON OUTPUT.
Info: WRAPPING ALL CLUSTERS AROUND PERIODIC BOUNDARIES ON OUTPUT.
Info: FIRST LDB TIMESTEP     50
Info: LAST LDB TIMESTEP     -1
Info: HOM BACKGROUND SCALING 1
Info: PME BACKGROUND SCALING 1
Info: MIN ATOMS PER PATCH    40
Info: EMPTY PATCH LOAD       40 ATOMS
Info: INITIAL TEMPERATURE    300
Info: CENTER OF MASS MOVING INITIALLY? NO
Info: DIELECTRIC             1
Info: EXCLUDE                SCALED ONE-FOUR
Info: 1-4 ELECTROSTATICS SCALED BY 0.833333
Info: MODIFIED 1-4 VDW PARAMETERS WILL BE USED
Info: DCD FILENAME           mobley_2784376_equil.dcd
Info: DCD FREQUENCY          100000
Info: DCD FIRST STEP         100000
Info: DCD FILE WILL CONTAIN UNIT CELL DATA
Info: XST FILENAME           mobley_2784376_equil.xst
Info: XST FREQUENCY          100000
Info: NO VELOCITY DCD OUTPUT
Info: NO FORCE DCD OUTPUT
Info: OUTPUT FILENAME        mobley_2784376_equil
Info: BINARY OUTPUT FILES WILL BE USED
Info: RESTART FILENAME       mobley_2784376_equil.restart
Info: RESTART FREQUENCY      100000
Info: BINARY RESTART FILES WILL BE USED
Info: CUTOFF                 9
Info: PAIRLIST DISTANCE      11
Info: PAIRLIST SHRINK RATE   0.01
Info: PAIRLIST GROW RATE     0.01
Info: PAIRLIST TRIGGER       0.3
Info: PAIRLISTS PER CYCLE    2
Info: PAIRLISTS ENABLED
Info: MARGIN                 8
Info: HYDROGEN GROUP CUTOFF  2.5
Info: PATCH DIMENSION        21.5
Info: ENERGY OUTPUT STEPS    100000
Info: ENERGY EVALUATION STEPS    100000
Info: OUTPUT ENERGY PRECISION 4
Info: CROSSTERM ENERGY INCLUDED IN DIHEDRAL
Info: TIMING OUTPUT STEPS    1000000
Info: PRESSURE OUTPUT STEPS  100000
Info: FIXED ATOMS ACTIVE
Info: LANGEVIN DYNAMICS ACTIVE
Info: LANGEVIN TEMPERATURE   30
Info: LANGEVIN USING BBK INTEGRATOR
Info: LANGEVIN DAMPING COEFFICIENT IS 1 INVERSE PS
Info: LANGEVIN DYNAMICS APPLIED TO HYDROGENS
Info: LANGEVIN PISTON PRESSURE CONTROL ACTIVE
Info:        TARGET PRESSURE IS 1.01325 BAR
Info:     OSCILLATION PERIOD IS 50 FS
Info:             DECAY TIME IS 25 FS
Info:     PISTON TEMPERATURE IS 300 K
Info:       PRESSURE CONTROL IS GROUP-BASED
Info:    INITIAL STRAIN RATE IS 0 0 0
Info:       CELL FLUCTUATION IS ISOTROPIC
Info: PARTICLE MESH EWALD (PME) ACTIVE
Info: PME TOLERANCE               1e-06
Info: PME EWALD COEFFICIENT       0.348832
Info: PME INTERPOLATION ORDER     4
Info: PME GRID DIMENSIONS         36 36 36
Info: PME MAXIMUM GRID SPACING    1
Info: FULL ELECTROSTATIC EVALUATION FREQUENCY      2
Info: USING VERLET I (r-RESPA) MTS SCHEME.
Info: C1 SPLITTING OF LONG RANGE ELECTROSTATICS
Info: PLACING ATOMS IN PATCHES BY HYDROGEN GROUPS
Info: RIGID BONDS TO HYDROGEN : ALL
Info:         ERROR TOLERANCE : 1e-08
Info:          MAX ITERATIONS : 100
Info: RIGID WATER USING SETTLE ALGORITHM
Info: RANDOM NUMBER SEED     1741933926
Info: USE HYDROGEN BONDS?    NO
Info: Using AMBER format force field!
Info: AMBER PARM FILE        mobley_2784376.prmtop
Info: COORDINATE PDB         mobley_2784376.pdb
Info: Exclusions will be read from PARM file!
Info: SCNB (VDW SCALING)     2
Info: USING ARITHMETIC MEAN TO COMBINE L-J SIGMA PARAMETERS
Info: BINARY COORDINATES     mobley_2784376_min.coor
Info: SUMMARY OF PARAMETERS:
Info: 4 BONDS
Info: 3 ANGLES
Info:   3 HARMONIC
Info:   0 COSINE-BASED
Info: 1 DIHEDRAL
Info: 0 IMPROPER
Info: 0 CROSSTERM
Info: 0 VDW
Info: 10 VDW_PAIRS
Info: 0 NBTHOLE_PAIRS
Info: STRUCTURE SUMMARY:
Info: 2985 ATOMS
Info: 2985 BONDS
Info: 18 ANGLES
Info: 24 DIHEDRALS
Info: 0 IMPROPERS
Info: 0 CROSSTERMS
Info: 3012 EXCLUSIONS
Info: 9 FIXED ATOMS
Info: 2982 RIGID BONDS
Info: 6 RIGID BONDS BETWEEN FIXED ATOMS
Info: 5952 DEGREES OF FREEDOM
Info: 995 HYDROGEN GROUPS
Info: 3 ATOMS IN LARGEST HYDROGEN GROUP
Info: 995 MIGRATION GROUPS
Info: 3 ATOMS IN LARGEST MIGRATION GROUP
Info: 3 HYDROGEN GROUPS WITH ALL ATOMS FIXED
Info: TOTAL MASS = 17914 amu
Info: TOTAL CHARGE = 0.000300005 e
Info: MASS DENSITY = 0.672156 g/cm^3
Info: ATOM DENSITY = 0.0674472 atoms/A^3
Info: ADDED 0 IMPLICIT EXCLUSIONS
Info: NONBONDED TABLE R-SQUARED SPACING: 0.0625
Info: NONBONDED TABLE SIZE: 705 POINTS
Info: REMOVING COM VELOCITY -0.18288 -0.00712105 0.0393897
TCL: Running for 100000 steps
ETITLE: TS BOND ANGLE DIHED IMPRP ELECT VDW BOUNDARY MISC KINETIC TOTAL TEMP POTENTIAL TOTAL3 TEMPAVG PRESSURE GPRESSURE VOLUME PRESSAVG GPRESSAVG
ENERGY: 0 0.0000 0.0000 0.0000 0.0000 -13874.9679 2479.4771 0.0000 0.0000 1741.9040 -9653.5867 294.5450 -11395.4908 -9653.2319 294.5450 620.2144 653.7380 44256.8405 620.2144 653.7380
ENERGY: 100000 0.0000 0.0000 0.0000 0.0000 -14439.6622 2536.7156 0.0000 0.0000 172.0436 -11730.9029 29.0915 -11902.9466 -11730.4777 30.9367 -37.0917 -10.3938 29757.5560 3.1046 3.1543
TCL: Running 100000 steps at 60 kelvin.
TCL: Setting parameter langevinTemp to 60
TCL: Running for 100000 steps
ETITLE: TS BOND ANGLE DIHED IMPRP ELECT VDW BOUNDARY MISC KINETIC TOTAL TEMP POTENTIAL TOTAL3 TEMPAVG PRESSURE GPRESSURE VOLUME PRESSAVG GPRESSAVG
ENERGY: 100000 0.0000 0.0000 0.0000 0.0000 -14439.6622 2536.7156 0.0000 0.0000 171.9566 -11730.9900 29.0768 -11902.9466 -11730.7070 29.0768 -54.9968 -10.2533 29757.5560 -54.9968 -10.2533
ENERGY: 200000 0.0000 0.0000 0.0000 0.0000 -14376.6460 2584.0909 0.0000 0.0000 352.1211 -11440.4340 59.5415 -11792.5551 -11439.6723 59.9981 776.5790 792.2717 29780.0964 4.7602 4.7867
TCL: Running 100000 steps at 90 kelvin.
TCL: Setting parameter langevinTemp to 90
TCL: Running for 100000 steps
ETITLE: TS BOND ANGLE DIHED IMPRP ELECT VDW BOUNDARY MISC KINETIC TOTAL TEMP POTENTIAL TOTAL3 TEMPAVG PRESSURE GPRESSURE VOLUME PRESSAVG GPRESSAVG
ENERGY: 200000 0.0000 0.0000 0.0000 0.0000 -14376.6460 2584.0909 0.0000 0.0000 351.9424 -11440.6127 59.5113 -11792.5552 -11439.8773 59.5113 745.8873 792.1560 29780.0964 745.8873 792.1560
ENERGY: 300000 0.0000 0.0000 0.0000 0.0000 -14234.4778 2500.9096 0.0000 0.0000 523.1424 -11210.4259 88.4601 -11733.5683 -11209.2103 90.0674 601.2785 601.6239 29233.6882 5.6631 5.6917
TCL: Running 100000 steps at 120 kelvin.
TCL: Setting parameter langevinTemp to 120
TCL: Running for 100000 steps
ETITLE: TS BOND ANGLE DIHED IMPRP ELECT VDW BOUNDARY MISC KINETIC TOTAL TEMP POTENTIAL TOTAL3 TEMPAVG PRESSURE GPRESSURE VOLUME PRESSAVG GPRESSAVG
ENERGY: 300000 0.0000 0.0000 0.0000 0.0000 -14234.4778 2500.9096 0.0000 0.0000 522.8752 -11210.6930 88.4149 -11733.5683 -11209.8375 88.4149 566.4862 601.4401 29233.6882 566.4862 601.4401
ENERGY: 400000 0.0000 0.0000 0.0000 0.0000 -14001.8994 2406.8899 0.0000 0.0000 694.8788 -10900.1307 117.4996 -11595.0095 -10899.1617 119.9139 336.5544 393.8709 29267.2514 4.6987 4.7039
TCL: Running 100000 steps at 150 kelvin.
TCL: Setting parameter langevinTemp to 150
TCL: Running for 100000 steps
ETITLE: TS BOND ANGLE DIHED IMPRP ELECT VDW BOUNDARY MISC KINETIC TOTAL TEMP POTENTIAL TOTAL3 TEMPAVG PRESSURE GPRESSURE VOLUME PRESSAVG GPRESSAVG
ENERGY: 400000 0.0000 0.0000 0.0000 0.0000 -14001.8994 2406.8899 0.0000 0.0000 694.5246 -10900.4849 117.4397 -11595.0095 -10898.9461 117.4397 360.7282 393.3960 29267.2514 360.7282 393.3960
ENERGY: 500000 0.0000 0.0000 0.0000 0.0000 -13696.8386 2249.4652 0.0000 0.0000 873.4681 -10573.9053 147.6980 -11447.3734 -10571.1603 149.4561 -427.4400 -409.0504 29523.1825 3.7087 3.6087
TCL: Running 100000 steps at 180 kelvin.
TCL: Setting parameter langevinTemp to 180
TCL: Running for 100000 steps
ETITLE: TS BOND ANGLE DIHED IMPRP ELECT VDW BOUNDARY MISC KINETIC TOTAL TEMP POTENTIAL TOTAL3 TEMPAVG PRESSURE GPRESSURE VOLUME PRESSAVG GPRESSAVG
ENERGY: 500000 0.0000 0.0000 0.0000 0.0000 -13696.8386 2249.4652 0.0000 0.0000 873.0302 -10574.3432 147.6239 -11447.3734 -10572.3278 147.6239 -440.3052 -407.9542 29523.1825 -440.3052 -407.9542
ENERGY: 600000 0.0000 0.0000 0.0000 0.0000 -13298.4585 2122.1765 0.0000 0.0000 1090.8929 -10085.3891 184.4631 -11176.2819 -10081.0093 179.8064 -186.9022 -136.9609 28991.3535 2.9070 2.8071
TCL: Running 100000 steps at 210 kelvin.
TCL: Setting parameter langevinTemp to 210
TCL: Running for 100000 steps
ETITLE: TS BOND ANGLE DIHED IMPRP ELECT VDW BOUNDARY MISC KINETIC TOTAL TEMP POTENTIAL TOTAL3 TEMPAVG PRESSURE GPRESSURE VOLUME PRESSAVG GPRESSAVG
ENERGY: 600000 0.0000 0.0000 0.0000 0.0000 -13298.4585 2122.1765 0.0000 0.0000 1090.3419 -10085.9400 184.3700 -11176.2819 -10083.7342 184.3700 -204.8206 -135.4483 28991.3535 -204.8206 -135.4483
ENERGY: 700000 0.0000 0.0000 0.0000 0.0000 -12653.2501 1985.2709 0.0000 0.0000 1267.3707 -9400.6085 214.3044 -10667.9792 -9398.3147 210.2197 446.5255 539.4838 29158.3280 4.7538 4.6959
TCL: Running 100000 steps at 240 kelvin.
TCL: Setting parameter langevinTemp to 240
TCL: Running for 100000 steps
ETITLE: TS BOND ANGLE DIHED IMPRP ELECT VDW BOUNDARY MISC KINETIC TOTAL TEMP POTENTIAL TOTAL3 TEMPAVG PRESSURE GPRESSURE VOLUME PRESSAVG GPRESSAVG
ENERGY: 700000 0.0000 0.0000 0.0000 0.0000 -12653.2501 1985.2709 0.0000 0.0000 1266.7433 -9401.2359 214.1983 -10667.9792 -9398.9530 214.1983 473.0379 538.6957 29158.3280 473.0379 538.6957
ENERGY: 800000 0.0000 0.0000 0.0000 0.0000 -12127.8051 1845.6441 0.0000 0.0000 1412.8896 -8869.2713 238.9108 -10282.1609 -8866.0616 240.5237 803.4403 935.8691 28882.0101 4.8906 4.7434
TCL: Running 100000 steps at 270 kelvin.
TCL: Setting parameter langevinTemp to 270
TCL: Running for 100000 steps
ETITLE: TS BOND ANGLE DIHED IMPRP ELECT VDW BOUNDARY MISC KINETIC TOTAL TEMP POTENTIAL TOTAL3 TEMPAVG PRESSURE GPRESSURE VOLUME PRESSAVG GPRESSAVG
ENERGY: 800000 0.0000 0.0000 0.0000 0.0000 -12127.8051 1845.6441 0.0000 0.0000 1412.1741 -8869.9869 238.7898 -10282.1609 -8868.1161 238.7898 844.9549 937.0767 28882.0101 844.9549 937.0767
ENERGY: 900000 0.0000 0.0000 0.0000 0.0000 -11416.0182 1654.7773 0.0000 0.0000 1566.0941 -8195.1468 264.8167 -9761.2409 -8190.1228 269.3726 479.0198 556.1080 30054.6180 3.1557 2.8923
TCL: Running 1000000 steps at 300 kelvin.
TCL: Setting parameter langevinTemp to 300
TCL: Running for 1000000 steps
ETITLE: TS BOND ANGLE DIHED IMPRP ELECT VDW BOUNDARY MISC KINETIC TOTAL TEMP POTENTIAL TOTAL3 TEMPAVG PRESSURE GPRESSURE VOLUME PRESSAVG GPRESSAVG
ENERGY: 900000 0.0000 0.0000 0.0000 0.0000 -11416.0182 1654.7773 0.0000 0.0000 1565.3358 -8195.9051 264.6885 -9761.2409 -8193.8370 264.6885 469.7210 556.1270 30054.6180 469.7210 556.1270
ENERGY: 1100000 0.0000 0.0000 0.0000 0.0000 -10802.0834 1470.8502 0.0000 0.0000 1794.2582 -7536.9751 303.3978 -9331.2333 -7534.9165 299.7449 363.2335 334.5322 30843.1965 4.4606 4.3261
ENERGY: 1300000 0.0000 0.0000 0.0000 0.0000 -10791.9661 1450.1043 0.0000 0.0000 1747.4426 -7594.4192 295.4816 -9341.8618 -7589.9191 299.8458 106.4848 133.7681 30689.8582 1.8778 1.9306
ENERGY: 1500000 0.0000 0.0000 0.0000 0.0000 -11024.5499 1579.1910 0.0000 0.0000 1747.7053 -7697.6536 295.5260 -9445.3589 -7696.3302 299.3397 783.1796 784.6053 30718.2035 4.0857 3.9172
ENERGY: 1700000 0.0000 0.0000 0.0000 0.0000 -10890.7652 1506.4838 0.0000 0.0000 1677.6352 -7706.6462 283.6776 -9384.2814 -7705.7534 300.2338 173.7234 313.7037 30846.9135 3.0221 2.8648
ENERGY: 1900000 0.0000 0.0000 0.0000 0.0000 -10788.3278 1369.9628 0.0000 0.0000 1756.6631 -7661.7020 297.0407 -9418.3650 -7660.7180 300.0914 -856.0373 -775.6181 30934.2812 4.8914 4.7946
TCL: Exiting due to exit command.
