Info: SIMULATION PARAMETERS:
Info: TIMESTEP               2
Info: NUMBER OF STEPS        0
Info: STEPS PER CYCLE        10
Info: PERIODIC CELL BASIS 1  33.0562 0 0
Info: PERIODIC CELL BASIS 2  0 31.654 0
Info: PERIODIC CELL BASIS 3  0 0 29.1338
Info: PERIODIC CELL CENTER   0 0 0
Info: WRAPPING WATERS AROUND PERIODIC BOUNDARIES ON OUTPUT.
Info: WRAPPING ALL CLUSTERS AROUND PERIODIC BOUNDARIES ON OUTPUT.
Info: FIRST LDB TIMESTEP     50
Info: LAST LDB TIMESTEP     -1
Info: HOM BACKGROUND SCALING 1
Info: PME BACKGROUND SCALING 1
Info: MIN ATOMS PER PATCH    40
Info: EMPTY PATCH LOAD       40 ATOMS
Info: VELOCITY FILE          mobley_5857_equil.vel
Info: CENTER OF MASS MOVING INITIALLY? NO
Info: DIELECTRIC             1
Info: EXCLUDE                SCALED ONE-FOUR
Info: 1-4 ELECTROSTATICS SCALED BY 0.833333
Info: MODIFIED 1-4 VDW PARAMETERS WILL BE USED
Info: DCD FILENAME           mobley_5857_prod.dcd
Info: DCD FREQUENCY          100000
Info: DCD FIRST STEP         100000
Info: DCD FILE WILL CONTAIN UNIT CELL DATA
Info: XST FILENAME           mobley_5857_prod.xst
Info: XST FREQUENCY          100000
Info: NO VELOCITY DCD OUTPUT
Info: NO FORCE DCD OUTPUT
Info: OUTPUT FILENAME        mobley_5857_prod
Info: BINARY OUTPUT FILES WILL BE USED
Info: RESTART FILENAME       mobley_5857_prod.restart
Info: RESTART FREQUENCY      100000
Info: BINARY RESTART FILES WILL BE USED
Info: CUTOFF                 9
Info: PAIRLIST DISTANCE      11
Info: PAIRLIST SHRINK RATE   0.01
Info: PAIRLIST GROW RATE     0.01
Info: PAIRLIST TRIGGER       0.3
Info: PAIRLISTS PER CYCLE    2
Info: PAIRLISTS ENABLED
Info: MARGIN                 2
Info: HYDROGEN GROUP CUTOFF  2.5
Info: PATCH DIMENSION        15.5
Info: ENERGY OUTPUT STEPS    100000
Info: ENERGY EVALUATION STEPS    100000
Info: OUTPUT ENERGY PRECISION 4
Info: CROSSTERM ENERGY INCLUDED IN DIHEDRAL
Info: TIMING OUTPUT STEPS    1000000
Info: PRESSURE OUTPUT STEPS  100000
Info: ALCHEMICAL FEP ON
Info: FEP CURRENT LAMBDA VALUE     0
Info: FEP COMPARISON LAMBDA VALUE  0.05
Info: FEP INTRA-ALCHEMICAL NON-BONDED INTERACTIONS WILL BE RETAINED
Info: FEP INTRA-ALCHEMICAL BONDED INTERACTIONS WILL BE RETAINED
Info: FEP VDW SHIFTING COEFFICIENT 5
Info: FEP ELEC. ACTIVE FOR ANNIHILATED PARTICLES BETWEEN LAMBDA = 0 AND LAMBDA = 0.5
Info: FEP ELEC. ACTIVE FOR EXNIHILATED PARTICLES BETWEEN LAMBDA = 0.5 AND LAMBDA = 1
Info: FEP VDW ACTIVE FOR ANNIHILATED PARTICLES BETWEEN LAMBDA = 0 AND LAMBDA = 1
Info: FEP VDW ACTIVE FOR EXNIHILATED PARTICLES BETWEEN LAMBDA = 0 AND LAMBDA = 1
Info: FEP BOND ACTIVE FOR ANNIHILATED PARTICLES BETWEEN LAMBDA = 1 AND LAMBDA = 1
Info: FEP BOND ACTIVE FOR EXNIHILATED PARTICLES BETWEEN LAMBDA = 0 AND LAMBDA = 0
Info: LANGEVIN DYNAMICS ACTIVE
Info: LANGEVIN TEMPERATURE   300
Info: LANGEVIN USING BBK INTEGRATOR
Info: LANGEVIN DAMPING COEFFICIENT IS 1 INVERSE PS
Info: LANGEVIN DYNAMICS APPLIED TO HYDROGENS
Info: LANGEVIN PISTON PRESSURE CONTROL ACTIVE
Info:        TARGET PRESSURE IS 1.01325 BAR
Info:     OSCILLATION PERIOD IS 50 FS
Info:             DECAY TIME IS 25 FS
Info:     PISTON TEMPERATURE IS 300 K
Info:       PRESSURE CONTROL IS GROUP-BASED
Info:    INITIAL STRAIN RATE IS 0.00039298 0.00039298 0.00039298
Info:       CELL FLUCTUATION IS ISOTROPIC
Info: PARTICLE MESH EWALD (PME) ACTIVE
Info: PME TOLERANCE               1e-06
Info: PME EWALD COEFFICIENT       0.348832
Info: PME INTERPOLATION ORDER     4
Info: PME GRID DIMENSIONS         36 32 32
Info: PME MAXIMUM GRID SPACING    1
Info: PME CALCULATION WILL BE PERFORMED ON GPU
Info: FULL ELECTROSTATIC EVALUATION FREQUENCY      2
Info: USING VERLET I (r-RESPA) MTS SCHEME.
Info: C1 SPLITTING OF LONG RANGE ELECTROSTATICS
Info: PLACING ATOMS IN PATCHES BY HYDROGEN GROUPS
Info: RIGID BONDS TO HYDROGEN : ALL
Info:         ERROR TOLERANCE : 1e-08
Info:          MAX ITERATIONS : 100
Info: RIGID WATER USING SETTLE ALGORITHM
Info: RANDOM NUMBER SEED     1742329050
Info: USE HYDROGEN BONDS?    NO
Info: Using AMBER format force field!
Info: AMBER PARM FILE        mobley_5857.prmtop
Info: COORDINATE PDB         mobley_5857.pdb
Info: Exclusions will be read from PARM file!
Info: SCNB (VDW SCALING)     2
Info: USING ARITHMETIC MEAN TO COMBINE L-J SIGMA PARAMETERS
Info: BINARY COORDINATES     mobley_5857_equil.coor
Info: SUMMARY OF PARAMETERS:
Info: 6 BONDS
Info: 6 ANGLES
Info:   6 HARMONIC
Info:   0 COSINE-BASED
Info: 3 DIHEDRAL
Info: 0 IMPROPER
Info: 0 CROSSTERM
Info: 0 VDW
Info: 21 VDW_PAIRS
Info: 0 NBTHOLE_PAIRS
Info: To read alchdata from file: mobley_5857.pdb
Info: To read alchflag data from column: 5
Info: STRUCTURE SUMMARY:
Info: 2993 ATOMS
Info: 2994 BONDS
Info: 28 ANGLES
Info: 46 DIHEDRALS
Info: 0 IMPROPERS
Info: 0 CROSSTERMS
Info: 3056 EXCLUSIONS
Info: 2983 RIGID BONDS
Info: ALCH: 0 ATOMS TO DISAPPEAR IN FINAL STATE
Info: ALCH: 17 ATOMS TO APPEAR IN FINAL STATE
Info: 5996 DEGREES OF FREEDOM
Info: 1002 HYDROGEN GROUPS
Info: 3 ATOMS IN LARGEST HYDROGEN GROUP
Info: 1002 MIGRATION GROUPS
Info: 3 ATOMS IN LARGEST MIGRATION GROUP
Info: TOTAL MASS = 18001 amu
Info: TOTAL CHARGE = 0.000100004 e
Info: MASS DENSITY = 0.980566 g/cm^3
Info: ATOM DENSITY = 0.0981809 atoms/A^3
Info: ADDED 0 IMPLICIT EXCLUSIONS
Info: NONBONDED TABLE R-SQUARED SPACING: 0.0625
Info: NONBONDED TABLE SIZE: 705 POINTS
Info: REMOVING COM VELOCITY -0.225056 -0.111036 -0.160648
Info: Use 3D box decompostion in PME FFT.
Info: Updated CUDA force table with 4096 elements.
Info: Updated CUDA LJ table with 6 x 6 elements.
Info: Found 18 unique exclusion lists needing 44 bytes
TCL: Running for 1500000 steps
ETITLE: TS BOND ANGLE DIHED IMPRP ELECT VDW BOUNDARY MISC KINETIC TOTAL TEMP POTENTIAL TOTALAVG TEMPAVG PRESSURE GPRESSURE VOLUME PRESSAVG GPRESSAVG
ENERGY: 0 3.4491 2.6735 4.7068 0.0000 -10931.5763 1514.0138 0.0000 0.0000 1704.1332 -7702.5999 286.0436 -9406.7331 -7702.5999 286.0436 329.4609 411.3073 30484.5421 329.4609 411.3073
ENERGY: 300000 2.0160 3.3371 4.4645 0.0000 -10930.0876 1533.8702 0.0000 0.0000 1778.4839 -7607.9158 298.5236 -9386.3997 -7605.5614 296.1103 707.3199 741.9762 30475.6809 326.2368 399.7486
ENERGY: 600000 1.9426 4.2304 5.5202 0.0000 -10845.7432 1420.0284 0.0000 0.0000 1747.4721 -7666.5495 293.3182 -9414.0216 -7620.0994 298.6877 -520.7953 -429.9202 30547.1869 44.4857 121.7813
ENERGY: 900000 4.9853 5.4588 2.3683 0.0000 -10802.1891 1354.1854 0.0000 0.0000 1733.2836 -7701.9077 290.9366 -9435.1913 -7636.3890 298.2731 -986.1854 -874.3653 30433.3678 -29.7124 42.9598
ENERGY: 1200000 6.2533 4.2246 3.2965 0.0000 -10785.0828 1428.7104 0.0000 0.0000 1808.5546 -7534.0434 303.5711 -9342.5980 -7623.5553 299.0016 -314.2844 -277.4679 30932.0116 -115.3253 -49.2675
ENERGY: 1500000 2.8283 5.0849 3.3374 0.0000 -10945.7494 1575.5275 0.0000 0.0000 1813.1256 -7545.8456 304.3383 -9358.9713 -7618.0366 299.3548 1013.1471 1104.8223 30466.8081 -57.0754 8.7026
TCL: Running FEP window   2: Lambda1 0.05   Lambda2 0.1    [dLambda 0.05  ]
TCL: Setting parameter firsttimestep to 0
TCL: Setting parameter alchLambda to 0.05
Info: NONBONDED TABLE R-SQUARED SPACING: 0.0625
Info: NONBONDED TABLE SIZE: 705 POINTS
TCL: Setting parameter alchLambda2 to 0.1
Info: NONBONDED TABLE R-SQUARED SPACING: 0.0625
Info: NONBONDED TABLE SIZE: 705 POINTS
TCL: Running for 1500000 steps
ETITLE: TS BOND ANGLE DIHED IMPRP ELECT VDW BOUNDARY MISC KINETIC TOTAL TEMP POTENTIAL TOTALAVG TEMPAVG PRESSURE GPRESSURE VOLUME PRESSAVG GPRESSAVG
ENERGY: 0 2.8283 5.0849 3.3374 0.0000 -10945.7497 1577.6159 0.0000 0.0000 1812.2298 -7544.6534 304.1880 -9356.8832 -7544.6534 304.1880 1029.1737 1111.1928 30466.8081 1029.1737 1111.1928
ENERGY: 300000 1.0175 4.2303 2.5301 0.0000 -10830.8993 1444.2626 0.0000 0.0000 1797.0821 -7581.7768 301.6454 -9378.8588 -7560.1986 302.0457 -289.4350 -259.6553 31054.5557 189.4084 236.1184
ENERGY: 600000 2.7520 5.8846 3.4885 0.0000 -10914.8256 1507.5757 0.0000 0.0000 1807.5241 -7587.6008 303.3981 -9395.1249 -7575.5643 300.4512 462.7557 503.3922 30321.8632 263.3942 308.7671
ENERGY: 900000 2.7181 4.4876 7.5274 0.0000 -10926.0875 1500.6966 0.0000 0.0000 1797.1686 -7613.4892 301.6599 -9410.6578 -7571.0243 302.1204 263.4516 325.0639 30441.9715 294.1134 355.3792
ENERGY: 1200000 5.4069 2.3396 5.2765 0.0000 -10877.9311 1477.7539 0.0000 0.0000 1741.1424 -7646.0118 292.2557 -9387.1542 -7578.9350 302.0683 -264.9213 -143.2779 30480.8245 307.3127 369.5410
ENERGY: 1500000 5.2324 4.7897 4.0537 0.0000 -10826.3940 1449.4365 0.0000 0.0000 1782.6537 -7580.2280 299.2235 -9362.8817 -7572.4389 302.0165 -344.0151 -247.3376 30770.5143 249.5287 311.6632
TCL: Running FEP window   3: Lambda1 0.1    Lambda2 0.15000000000000002 [dLambda 0.05000000000000002]
TCL: Setting parameter firsttimestep to 0
TCL: Setting parameter alchLambda to 0.1
Info: NONBONDED TABLE R-SQUARED SPACING: 0.0625
Info: NONBONDED TABLE SIZE: 705 POINTS
TCL: Setting parameter alchLambda2 to 0.15000000000000002
Info: NONBONDED TABLE R-SQUARED SPACING: 0.0625
Info: NONBONDED TABLE SIZE: 705 POINTS
TCL: Running for 1500000 steps
ETITLE: TS BOND ANGLE DIHED IMPRP ELECT VDW BOUNDARY MISC KINETIC TOTAL TEMP POTENTIAL TOTALAVG TEMPAVG PRESSURE GPRESSURE VOLUME PRESSAVG GPRESSAVG
ENERGY: 0 5.2324 4.7897 4.0537 0.0000 -10826.3950 1451.6404 0.0000 0.0000 1781.7389 -7578.9398 299.0700 -9360.6788 -7578.9398 299.0700 -324.5719 -237.0270 30770.5143 -324.5719 -237.0270
ENERGY: 300000 4.3429 5.0100 3.3515 0.0000 -10910.0666 1461.8111 0.0000 0.0000 1822.3527 -7613.1984 305.8871 -9435.5511 -7588.5746 299.6446 114.2586 202.5380 29979.4053 -201.6264 -128.1058
ENERGY: 600000 1.7601 9.9309 3.3245 0.0000 -10820.5530 1433.7180 0.0000 0.0000 1736.0045 -7635.8150 291.3933 -9371.8194 -7589.0211 300.7317 -233.2125 -143.6222 30482.6389 -112.6700 -48.8798
ENERGY: 900000 3.4577 3.7444 1.9020 0.0000 -10921.5222 1519.2790 0.0000 0.0000 1754.7338 -7638.4054 294.5371 -9393.1392 -7589.5483 300.4023 496.7228 564.2397 30450.0685 70.7389 132.3639
ENERGY: 1200000 1.5695 2.6459 4.5113 0.0000 -10911.2642 1510.1667 0.0000 0.0000 1774.6146 -7617.7562 297.8741 -9392.3708 -7595.4420 300.1129 444.3651 599.9845 30008.0554 100.7991 171.1664
ENERGY: 1500000 1.3778 5.1961 3.9141 0.0000 -10936.3567 1505.3097 0.0000 0.0000 1733.7039 -7686.8549 291.0072 -9420.5589 -7599.7375 299.4178 433.5627 484.2212 30330.4868 80.3273 150.6816
TCL: Running FEP window   4: Lambda1 0.15000000000000002 Lambda2 0.2    [dLambda 0.04999999999999999]
TCL: Setting parameter firsttimestep to 0
TCL: Setting parameter alchLambda to 0.15000000000000002
Info: NONBONDED TABLE R-SQUARED SPACING: 0.0625
Info: NONBONDED TABLE SIZE: 705 POINTS
TCL: Setting parameter alchLambda2 to 0.2
Info: NONBONDED TABLE R-SQUARED SPACING: 0.0625
Info: NONBONDED TABLE SIZE: 705 POINTS
TCL: Running for 1500000 steps
ETITLE: TS BOND ANGLE DIHED IMPRP ELECT VDW BOUNDARY MISC KINETIC TOTAL TEMP POTENTIAL TOTALAVG TEMPAVG PRESSURE GPRESSURE VOLUME PRESSAVG GPRESSAVG
ENERGY: 0 1.3778 5.1961 3.9141 0.0000 -10936.3568 1505.0370 0.0000 0.0000 1732.8088 -7688.0230 290.8569 -9420.8317 -7688.0230 290.8569 402.5266 483.7983 30330.4868 402.5266 483.7983
ENERGY: 300000 5.0486 3.2023 2.2624 0.0000 -10935.7629 1520.5199 0.0000 0.0000 1755.1731 -7649.5567 294.6108 -9404.7298 -7603.3484 297.7246 170.8200 186.5201 30780.0224 -11.6770 41.2296
ENERGY: 600000 5.9537 5.5666 3.1208 0.0000 -10794.9458 1421.1147 0.0000 0.0000 1766.1366 -7593.0534 296.4511 -9359.1900 -7599.1229 299.1227 -234.6950 -200.6635 30462.3555 -15.3509 36.9262
ENERGY: 900000 4.3739 3.1417 2.5941 0.0000 -10949.9752 1566.2100 0.0000 0.0000 1749.4597 -7624.1958 293.6518 -9373.6555 -7596.7447 298.9293 853.9965 948.7448 30339.8255 139.1566 196.9999
ENERGY: 1200000 5.3983 5.4737 1.4175 0.0000 -10886.1456 1478.8185 0.0000 0.0000 1830.7352 -7564.3024 307.2942 -9395.0377 -7595.4466 300.2793 198.1089 205.2742 30704.7964 102.2707 156.5513
ENERGY: 1500000 2.9856 6.9729 9.0805 0.0000 -10738.3815 1387.4384 0.0000 0.0000 1839.8337 -7492.0705 308.8214 -9331.9041 -7593.2422 300.4513 -495.0244 -427.0855 31063.8947 5.3973 56.3782
TCL: Running FEP window   5: Lambda1 0.2    Lambda2 0.25   [dLambda 0.04999999999999999]
TCL: Setting parameter firsttimestep to 0
TCL: Setting parameter alchLambda to 0.2
Info: NONBONDED TABLE R-SQUARED SPACING: 0.0625
Info: NONBONDED TABLE SIZE: 705 POINTS
TCL: Setting parameter alchLambda2 to 0.25
Info: NONBONDED TABLE R-SQUARED SPACING: 0.0625
Info: NONBONDED TABLE SIZE: 705 POINTS
TCL: Running for 1500000 steps
ETITLE: TS BOND ANGLE DIHED IMPRP ELECT VDW BOUNDARY MISC KINETIC TOTAL TEMP POTENTIAL TOTALAVG TEMPAVG PRESSURE GPRESSURE VOLUME PRESSAVG GPRESSAVG
ENERGY: 0 2.9856 6.9729 9.0805 0.0000 -10738.3805 1387.3188 0.0000 0.0000 1838.9452 -7493.0775 308.6722 -9332.0227 -7493.0775 308.6722 -516.4155 -422.2977 31063.8947 -516.4155 -422.2977
ENERGY: 300000 6.4642 5.1103 4.5866 0.0000 -10978.9754 1546.0276 0.0000 0.0000 1745.8280 -7670.9586 293.0422 -9416.7866 -7582.4500 299.3067 237.3073 270.9162 30967.2692 -218.4812 -173.4512
ENERGY: 600000 3.2243 4.8688 4.0641 0.0000 -10753.3761 1407.5511 0.0000 0.0000 1756.2815 -7577.3862 294.7969 -9333.6677 -7571.4615 300.6384 -552.7599 -493.1275 31030.3427 -165.4356 -109.1976
ENERGY: 900000 2.2255 3.9093 2.0371 0.0000 -10889.6045 1473.7660 0.0000 0.0000 1730.7721 -7676.8946 290.5151 -9407.6667 -7582.5851 299.5096 56.6548 181.4337 30343.7866 -130.6954 -66.9533
ENERGY: 1200000 3.8401 7.1186 8.7593 0.0000 -10783.5874 1436.7635 0.0000 0.0000 1802.0051 -7525.1008 302.4717 -9327.1059 -7575.3425 300.3010 -168.4354 -159.7882 30950.7036 -82.9585 -24.8474
ENERGY: 1500000 3.0949 6.0787 6.5095 0.0000 -10873.9526 1493.4533 0.0000 0.0000 1787.7565 -7577.0597 300.0801 -9364.8162 -7574.9466 300.2890 326.1261 360.7171 30501.8626 -11.6881 47.8628
TCL: Running FEP window   6: Lambda1 0.25   Lambda2 0.3    [dLambda 0.04999999999999999]
TCL: Setting parameter firsttimestep to 0
TCL: Setting parameter alchLambda to 0.25
Info: NONBONDED TABLE R-SQUARED SPACING: 0.0625
Info: NONBONDED TABLE SIZE: 705 POINTS
TCL: Setting parameter alchLambda2 to 0.3
Info: NONBONDED TABLE R-SQUARED SPACING: 0.0625
Info: NONBONDED TABLE SIZE: 705 POINTS
TCL: Running for 1500000 steps
ETITLE: TS BOND ANGLE DIHED IMPRP ELECT VDW BOUNDARY MISC KINETIC TOTAL TEMP POTENTIAL TOTALAVG TEMPAVG PRESSURE GPRESSURE VOLUME PRESSAVG GPRESSAVG
ENERGY: 0 3.0949 6.0787 6.5095 0.0000 -10873.9521 1494.1317 0.0000 0.0000 1786.9029 -7577.2343 299.9368 -9364.1372 -7577.2343 299.9368 281.8436 371.9218 30501.8626 281.8436 371.9218
ENERGY: 300000 4.2924 6.0957 4.7273 0.0000 -10658.3122 1347.3233 0.0000 0.0000 1803.8595 -7492.0138 302.7830 -9295.8734 -7572.5116 300.4299 -779.9792 -748.2842 31157.0283 -17.3955 59.2566
ENERGY: 600000 4.3669 3.5971 5.0749 0.0000 -10973.4694 1567.2887 0.0000 0.0000 1755.0518 -7638.0901 294.5905 -9393.1419 -7605.0794 298.1462 972.9976 1035.2382 30157.9618 156.6416 236.5381
ENERGY: 900000 6.0837 4.6918 10.8698 0.0000 -10799.3905 1490.2388 0.0000 0.0000 1780.2944 -7507.2121 298.8275 -9287.5065 -7599.0892 297.8218 282.4472 293.3277 30915.4460 178.2435 243.7122
ENERGY: 1200000 2.5083 2.2931 5.5598 0.0000 -10844.4362 1465.8884 0.0000 0.0000 1815.6616 -7552.5252 304.7640 -9368.1867 -7589.8983 298.6268 100.8265 120.9853 30737.6811 163.5804 223.2102
ENERGY: 1500000 2.1361 4.1329 6.8518 0.0000 -10816.9769 1438.3409 0.0000 0.0000 1824.1598 -7541.3555 306.1904 -9365.5153 -7588.3541 299.1255 -375.5757 -317.0491 31012.9979 123.2750 185.0801
TCL: Running FEP window   7: Lambda1 0.3    Lambda2 0.35   [dLambda 0.04999999999999999]
TCL: Setting parameter firsttimestep to 0
TCL: Setting parameter alchLambda to 0.3
Info: NONBONDED TABLE R-SQUARED SPACING: 0.0625
Info: NONBONDED TABLE SIZE: 705 POINTS
TCL: Setting parameter alchLambda2 to 0.35
Info: NONBONDED TABLE R-SQUARED SPACING: 0.0625
Info: NONBONDED TABLE SIZE: 705 POINTS
TCL: Running for 1500000 steps
ETITLE: TS BOND ANGLE DIHED IMPRP ELECT VDW BOUNDARY MISC KINETIC TOTAL TEMP POTENTIAL TOTALAVG TEMPAVG PRESSURE GPRESSURE VOLUME PRESSAVG GPRESSAVG
ENERGY: 0 2.1361 4.1329 6.8518 0.0000 -10816.9771 1438.0871 0.0000 0.0000 1823.2130 -7542.5563 306.0315 -9365.7693 -7542.5563 306.0315 -406.4460 -314.8964 31012.9979 -406.4460 -314.8964
ENERGY: 300000 2.4603 3.7487 2.5191 0.0000 -10917.2525 1525.0145 0.0000 0.0000 1838.2959 -7545.2141 308.5632 -9383.5100 -7541.7351 303.9732 47.3634 139.2757 31130.9943 44.5428 113.0675
ENERGY: 600000 3.2287 7.5615 4.7226 0.0000 -10903.4526 1460.0280 0.0000 0.0000 1799.0140 -7628.8977 301.9697 -9427.9117 -7575.9665 301.4601 -87.2118 -21.8442 30570.1694 -259.2115 -202.0516
ENERGY: 900000 3.2791 4.0575 6.9840 0.0000 -10899.2324 1453.3441 0.0000 0.0000 1824.3363 -7607.2314 306.2201 -9431.5677 -7574.3987 302.2790 5.8840 76.1505 30363.3447 -6.6518 54.2494
ENERGY: 1200000 5.2034 5.4834 3.2585 0.0000 -10834.5164 1431.1751 0.0000 0.0000 1819.5737 -7569.8222 305.4207 -9389.3959 -7581.7304 302.5205 -100.5608 -91.7341 30642.6520 -67.6951 -17.4391
ENERGY: 1500000 3.5032 7.5087 6.4887 0.0000 -10967.3387 1541.1521 0.0000 0.0000 1720.9331 -7687.7530 288.8636 -9408.6861 -7598.5785 300.6456 789.1476 800.4936 30295.9521 -77.2694 -30.6260
TCL: Running FEP window   8: Lambda1 0.35   Lambda2 0.39999999999999997 [dLambda 0.04999999999999999]
TCL: Setting parameter firsttimestep to 0
TCL: Setting parameter alchLambda to 0.35
Info: NONBONDED TABLE R-SQUARED SPACING: 0.0625
Info: NONBONDED TABLE SIZE: 705 POINTS
TCL: Setting parameter alchLambda2 to 0.39999999999999997
Info: NONBONDED TABLE R-SQUARED SPACING: 0.0625
Info: NONBONDED TABLE SIZE: 705 POINTS
TCL: Running for 1500000 steps
ETITLE: TS BOND ANGLE DIHED IMPRP ELECT VDW BOUNDARY MISC KINETIC TOTAL TEMP POTENTIAL TOTALAVG TEMPAVG PRESSURE GPRESSURE VOLUME PRESSAVG GPRESSAVG
ENERGY: 0 3.5032 7.5087 6.4887 0.0000 -10967.3394 1541.2271 0.0000 0.0000 1720.0500 -7688.5618 288.7153 -9408.6117 -7688.5618 288.7153 714.0551 805.4933 30295.9521 714.0551 805.4933
ENERGY: 300000 1.6784 4.2034 4.5096 0.0000 -10860.8488 1420.4710 0.0000 0.0000 1719.0373 -7710.9490 288.5453 -9429.9864 -7631.1472 293.8154 -343.6249 -262.0696 30522.8626 -178.3590 -132.9778
ENERGY: 600000 1.6996 4.4514 3.8383 0.0000 -10871.7981 1511.6807 0.0000 0.0000 1794.7820 -7555.3460 301.2593 -9350.1280 -7611.7827 294.5788 357.5394 453.7311 30601.9904 -14.1283 48.8023
ENERGY: 900000 5.4740 2.6240 4.8732 0.0000 -11014.9793 1612.2162 0.0000 0.0000 1800.7880 -7589.0039 302.2674 -9389.7919 -7603.2864 295.1854 1151.6550 1164.5762 30686.1641 81.6799 139.6186
ENERGY: 1200000 5.1729 4.1609 4.3311 0.0000 -10784.6592 1452.3475 0.0000 0.0000 1824.8789 -7493.7679 306.3111 -9318.6468 -7593.3168 296.9138 18.6689 67.2992 30832.1915 70.5115 126.4752
ENERGY: 1500000 2.2023 3.4089 3.7518 0.0000 -10882.5962 1415.2609 0.0000 0.0000 1787.3403 -7670.6321 300.0102 -9457.9724 -7602.1984 297.4376 -678.1338 -637.0745 30813.1661 -29.9364 26.5425
TCL: Running FEP window   9: Lambda1 0.39999999999999997 Lambda2 0.44999999999999996 [dLambda 0.04999999999999999]
TCL: Setting parameter firsttimestep to 0
TCL: Setting parameter alchLambda to 0.39999999999999997
Info: NONBONDED TABLE R-SQUARED SPACING: 0.0625
Info: NONBONDED TABLE SIZE: 705 POINTS
TCL: Setting parameter alchLambda2 to 0.44999999999999996
Info: NONBONDED TABLE R-SQUARED SPACING: 0.0625
Info: NONBONDED TABLE SIZE: 705 POINTS
TCL: Running for 1500000 steps
ETITLE: TS BOND ANGLE DIHED IMPRP ELECT VDW BOUNDARY MISC KINETIC TOTAL TEMP POTENTIAL TOTALAVG TEMPAVG PRESSURE GPRESSURE VOLUME PRESSAVG GPRESSAVG
ENERGY: 0 2.2023 3.4089 3.7518 0.0000 -10882.5984 1415.6413 0.0000 0.0000 1786.4805 -7671.1137 299.8659 -9457.5942 -7671.1137 299.8659 -718.1280 -631.9976 30813.1661 -718.1280 -631.9976
ENERGY: 300000 3.0889 3.2818 5.3818 0.0000 -10924.1227 1537.7897 0.0000 0.0000 1799.6149 -7574.9655 302.0705 -9374.5805 -7601.6466 301.1731 615.7196 685.0630 30481.5522 -258.0603 -158.2485
ENERGY: 600000 3.4470 4.1691 3.0789 0.0000 -11006.1183 1534.2142 0.0000 0.0000 1782.5271 -7678.6820 299.2023 -9461.2091 -7600.0607 301.8259 133.0660 255.0326 30617.3092 -133.8173 -43.4927
ENERGY: 900000 2.7950 2.6761 4.5417 0.0000 -10962.2070 1489.8277 0.0000 0.0000 1793.4493 -7668.9172 301.0356 -9462.3665 -7587.8691 302.9462 465.8849 625.7312 29863.6399 -95.2378 -1.0584
ENERGY: 1200000 2.5247 3.8273 4.1754 0.0000 -10875.8951 1474.4562 0.0000 0.0000 1745.6371 -7645.2744 293.0102 -9390.9115 -7596.9817 301.2724 -72.8982 2.8540 30758.7195 -41.3330 39.8651
ENERGY: 1500000 2.4047 2.9228 5.8446 0.0000 -10903.0186 1512.5357 0.0000 0.0000 1766.0975 -7613.2133 296.4445 -9379.3108 -7590.7259 300.4505 542.9185 580.4577 30336.8369 -99.6727 -23.7378
TCL: Running FEP window  10: Lambda1 0.44999999999999996 Lambda2 0.49999999999999994 [dLambda 0.04999999999999999]
TCL: Setting parameter firsttimestep to 0
TCL: Setting parameter alchLambda to 0.44999999999999996
Info: NONBONDED TABLE R-SQUARED SPACING: 0.0625
Info: NONBONDED TABLE SIZE: 705 POINTS
TCL: Setting parameter alchLambda2 to 0.49999999999999994
Info: NONBONDED TABLE R-SQUARED SPACING: 0.0625
Info: NONBONDED TABLE SIZE: 705 POINTS
TCL: Running for 1500000 steps
ETITLE: TS BOND ANGLE DIHED IMPRP ELECT VDW BOUNDARY MISC KINETIC TOTAL TEMP POTENTIAL TOTALAVG TEMPAVG PRESSURE GPRESSURE VOLUME PRESSAVG GPRESSAVG
ENERGY: 0 2.4047 2.9228 5.8446 0.0000 -10903.0184 1512.3694 0.0000 0.0000 1765.2075 -7614.2694 296.2951 -9379.4769 -7614.2694 296.2951 498.1784 585.4469 30336.8369 498.1784 585.4469
ENERGY: 300000 4.1462 5.0878 2.2169 0.0000 -10853.4594 1396.4105 0.0000 0.0000 1835.0631 -7610.5349 308.0206 -9445.5981 -7598.7639 301.2934 -754.8906 -669.4047 30799.5942 -152.8355 -87.4968
ENERGY: 600000 4.8096 2.9896 2.5820 0.0000 -10666.5416 1389.6290 0.0000 0.0000 1778.5648 -7487.9666 298.5372 -9266.5314 -7568.3526 300.9454 -237.0211 -237.1363 30623.2714 -252.7198 -202.5712
ENERGY: 900000 5.6880 2.4189 8.0597 0.0000 -10819.2585 1456.3625 0.0000 0.0000 1812.5024 -7534.2270 304.2337 -9346.7294 -7551.1675 301.8814 222.4822 277.5438 30353.1308 -220.4641 -174.4750
ENERGY: 1200000 1.6953 5.5163 9.0623 0.0000 -10889.3282 1493.1642 0.0000 0.0000 1822.8718 -7557.0183 305.9743 -9379.8901 -7551.9400 301.6432 495.0959 565.8131 30518.5560 -16.0261 30.4554
ENERGY: 1500000 1.9124 4.1610 1.8642 0.0000 -10823.6810 1468.6658 0.0000 0.0000 1759.3878 -7587.6899 295.3183 -9347.0777 -7555.8566 301.4575 -41.4844 -21.4430 31106.8102 -70.6264 -28.1284
TCL: Running FEP window  11: Lambda1 0.49999999999999994 Lambda2 0.5499999999999999 [dLambda 0.04999999999999999]
TCL: Setting parameter firsttimestep to 0
TCL: Setting parameter alchLambda to 0.49999999999999994
Info: NONBONDED TABLE R-SQUARED SPACING: 0.0625
Info: NONBONDED TABLE SIZE: 705 POINTS
TCL: Setting parameter alchLambda2 to 0.5499999999999999
Info: NONBONDED TABLE R-SQUARED SPACING: 0.0625
Info: NONBONDED TABLE SIZE: 705 POINTS
TCL: Running for 1500000 steps
ETITLE: TS BOND ANGLE DIHED IMPRP ELECT VDW BOUNDARY MISC KINETIC TOTAL TEMP POTENTIAL TOTALAVG TEMPAVG PRESSURE GPRESSURE VOLUME PRESSAVG GPRESSAVG
ENERGY: 0 1.9124 4.1610 1.8642 0.0000 -10823.6811 1468.3153 0.0000 0.0000 1758.4755 -7588.9527 295.1652 -9347.4282 -7588.9527 295.1652 -100.7135 -18.0718 31106.8102 -100.7135 -18.0718
ENERGY: 300000 3.4632 3.2422 2.9135 0.0000 -10861.8236 1494.8705 0.0000 0.0000 1750.6619 -7606.6725 293.8536 -9357.3343 -7628.3452 296.3426 442.8570 552.0756 30599.2817 -0.7891 62.8058
ENERGY: 600000 3.4190 5.8805 3.8314 0.0000 -10776.5737 1407.1573 0.0000 0.0000 1805.7100 -7550.5754 303.0936 -9356.2854 -7592.0182 298.2744 -510.4709 -457.0319 31096.8653 -219.5038 -159.0193
ENERGY: 900000 3.7534 4.1341 7.2144 0.0000 -10735.1962 1384.7134 0.0000 0.0000 1747.4713 -7587.9095 293.3181 -9335.3809 -7604.3196 298.4349 -691.4076 -577.7198 31027.1509 -160.8152 -90.4673
ENERGY: 1200000 3.7590 6.5215 2.4379 0.0000 -10769.3279 1420.4755 0.0000 0.0000 1754.7828 -7581.3512 294.5453 -9336.1340 -7595.7846 298.6414 -330.1397 -236.1298 30831.0722 -204.1922 -124.7702
ENERGY: 1500000 5.9761 3.7137 4.4181 0.0000 -10795.1048 1398.5017 0.0000 0.0000 1776.7579 -7605.7373 298.2339 -9382.4952 -7600.9799 297.9398 -674.8857 -585.8906 31095.0184 -237.4568 -157.1070
TCL: Running FEP window  12: Lambda1 0.5499999999999999 Lambda2 0.6    [dLambda 0.050000000000000044]
TCL: Setting parameter firsttimestep to 0
TCL: Setting parameter alchLambda to 0.5499999999999999
Info: NONBONDED TABLE R-SQUARED SPACING: 0.0625
Info: NONBONDED TABLE SIZE: 705 POINTS
TCL: Setting parameter alchLambda2 to 0.6
Info: NONBONDED TABLE R-SQUARED SPACING: 0.0625
Info: NONBONDED TABLE SIZE: 705 POINTS
TCL: Running for 1500000 steps
ETITLE: TS BOND ANGLE DIHED IMPRP ELECT VDW BOUNDARY MISC KINETIC TOTAL TEMP POTENTIAL TOTALAVG TEMPAVG PRESSURE GPRESSURE VOLUME PRESSAVG GPRESSAVG
ENERGY: 0 5.9762 3.7137 4.4181 0.0000 -10794.8668 1399.1499 0.0000 0.0000 1775.8829 -7605.7260 298.0870 -9381.6089 -7605.7260 298.0870 -662.6665 -571.7694 31095.0184 -662.6665 -571.7694
ENERGY: 300000 4.7690 5.1054 5.3261 0.0000 -10764.0109 1370.6993 0.0000 0.0000 1848.2003 -7529.9107 310.2257 -9378.1111 -7564.0344 303.4667 -892.6359 -842.9670 31247.7400 -455.6704 -393.0418
ENERGY: 600000 1.9727 5.0413 4.1797 0.0000 -10819.3697 1425.7866 0.0000 0.0000 1787.4374 -7594.9521 300.0265 -9382.3894 -7548.3084 303.9890 -170.2635 -103.2700 30485.7009 -252.6041 -198.6474
ENERGY: 900000 3.0798 5.7381 6.8741 0.0000 -10832.6188 1432.7666 0.0000 0.0000 1793.0307 -7591.1295 300.9653 -9384.1602 -7554.6179 303.6831 -394.9758 -342.4838 31095.7098 -200.8310 -141.9851
ENERGY: 1200000 3.6725 3.3051 6.3847 0.0000 -10909.2681 1500.3836 0.0000 0.0000 1718.9470 -7676.5751 288.5302 -9395.5222 -7558.0185 302.7716 -71.3125 77.3327 31055.4887 -190.6854 -133.9354
ENERGY: 1500000 2.1605 2.1424 4.7878 0.0000 -10765.2653 1372.6083 0.0000 0.0000 1852.0944 -7531.4720 310.8793 -9383.5664 -7559.8487 303.1013 -843.7037 -767.3630 30974.8555 -239.5181 -182.4599
TCL: Running FEP window  13: Lambda1 0.6    Lambda2 0.65   [dLambda 0.050000000000000044]
TCL: Setting parameter firsttimestep to 0
TCL: Setting parameter alchLambda to 0.6
Info: NONBONDED TABLE R-SQUARED SPACING: 0.0625
Info: NONBONDED TABLE SIZE: 705 POINTS
TCL: Setting parameter alchLambda2 to 0.65
Info: NONBONDED TABLE R-SQUARED SPACING: 0.0625
Info: NONBONDED TABLE SIZE: 705 POINTS
TCL: Running for 1500000 steps
ETITLE: TS BOND ANGLE DIHED IMPRP ELECT VDW BOUNDARY MISC KINETIC TOTAL TEMP POTENTIAL TOTALAVG TEMPAVG PRESSURE GPRESSURE VOLUME PRESSAVG GPRESSAVG
ENERGY: 0 2.1605 2.1424 4.7878 0.0000 -10765.2822 1372.6309 0.0000 0.0000 1851.2096 -7532.3510 310.7308 -9383.5606 -7532.3510 310.7308 -833.3275 -760.2458 30974.8555 -833.3275 -760.2458
ENERGY: 300000 6.0513 4.3322 5.6790 0.0000 -10810.6116 1444.3031 0.0000 0.0000 1816.6335 -7533.6126 304.9271 -9350.2460 -7562.7946 301.4881 -211.2410 -140.2151 30859.2307 -694.7601 -622.3370
ENERGY: 600000 3.4102 5.4582 4.1252 0.0000 -10776.2756 1475.6360 0.0000 0.0000 1765.0595 -7522.5865 296.2703 -9287.6460 -7574.3528 299.9035 389.1195 456.6186 30868.2153 -379.4646 -311.2774
ENERGY: 900000 5.7869 4.5795 3.2190 0.0000 -10909.2551 1548.1464 0.0000 0.0000 1775.9690 -7571.5543 298.1015 -9347.5232 -7579.6770 299.9984 575.2663 667.9574 30729.3962 -184.4374 -114.8702
ENERGY: 1200000 2.2672 3.8690 5.9146 0.0000 -10806.7214 1406.9596 0.0000 0.0000 1819.9144 -7567.7965 305.4779 -9387.7110 -7566.5560 301.4358 -319.3732 -258.9148 30779.2656 -136.6940 -66.5617
ENERGY: 1500000 2.8077 4.0817 4.7164 0.0000 -10841.4895 1432.1721 0.0000 0.0000 1805.3833 -7592.3283 303.0388 -9397.7116 -7570.3065 301.7369 -381.4803 -354.3039 30961.4489 -175.2021 -111.4394
TCL: Running FEP window  14: Lambda1 0.65   Lambda2 0.7000000000000001 [dLambda 0.050000000000000044]
TCL: Setting parameter firsttimestep to 0
TCL: Setting parameter alchLambda to 0.65
Info: NONBONDED TABLE R-SQUARED SPACING: 0.0625
Info: NONBONDED TABLE SIZE: 705 POINTS
TCL: Setting parameter alchLambda2 to 0.7000000000000001
Info: NONBONDED TABLE R-SQUARED SPACING: 0.0625
Info: NONBONDED TABLE SIZE: 705 POINTS
TCL: Running for 1500000 steps
ETITLE: TS BOND ANGLE DIHED IMPRP ELECT VDW BOUNDARY MISC KINETIC TOTAL TEMP POTENTIAL TOTALAVG TEMPAVG PRESSURE GPRESSURE VOLUME PRESSAVG GPRESSAVG
ENERGY: 0 2.8077 4.0817 4.7164 0.0000 -10841.7893 1432.0127 0.0000 0.0000 1804.5321 -7593.6386 302.8959 -9398.1707 -7593.6386 302.8959 -428.5889 -346.1495 30961.4489 -428.5889 -346.1495
ENERGY: 300000 4.2300 5.6680 6.9078 0.0000 -10778.2132 1395.2180 0.0000 0.0000 1773.1360 -7593.0534 297.6260 -9366.1894 -7591.2059 300.7282 -835.2284 -753.1578 31445.3515 -371.3326 -312.8290
ENERGY: 600000 2.6070 4.7571 4.5481 0.0000 -10981.4058 1497.1890 0.0000 0.0000 1772.8369 -7699.4677 297.5757 -9472.3045 -7587.7657 301.5809 -67.1242 -12.7584 30876.9809 -211.1795 -155.1492
ENERGY: 900000 6.8275 4.7091 3.0066 0.0000 -10856.7788 1514.0333 0.0000 0.0000 1766.7699 -7561.4325 296.5574 -9328.2023 -7578.1022 299.8164 378.2359 392.7939 31059.4606 -236.5701 -179.3332
ENERGY: 1200000 1.1257 5.1322 3.7134 0.0000 -10755.5379 1381.3533 0.0000 0.0000 1807.7446 -7556.4687 303.4351 -9364.2133 -7581.8723 300.8097 -285.2117 -227.4851 30484.9013 -110.2580 -58.8055
ENERGY: 1500000 3.0560 2.6734 2.9608 0.0000 -10826.6439 1430.5490 0.0000 0.0000 1774.1254 -7613.2793 297.7920 -9387.4047 -7582.7662 300.5479 -155.0848 -118.4274 30596.5419 -149.5520 -97.7838
TCL: Running FEP window  15: Lambda1 0.7000000000000001 Lambda2 0.7500000000000001 [dLambda 0.050000000000000044]
TCL: Setting parameter firsttimestep to 0
TCL: Setting parameter alchLambda to 0.7000000000000001
Info: NONBONDED TABLE R-SQUARED SPACING: 0.0625
Info: NONBONDED TABLE SIZE: 705 POINTS
TCL: Setting parameter alchLambda2 to 0.7500000000000001
Info: NONBONDED TABLE R-SQUARED SPACING: 0.0625
Info: NONBONDED TABLE SIZE: 705 POINTS
TCL: Running for 1500000 steps
ETITLE: TS BOND ANGLE DIHED IMPRP ELECT VDW BOUNDARY MISC KINETIC TOTAL TEMP POTENTIAL TOTALAVG TEMPAVG PRESSURE GPRESSURE VOLUME PRESSAVG GPRESSAVG
ENERGY: 0 3.0560 2.6734 2.9608 0.0000 -10827.4250 1429.9522 0.0000 0.0000 1773.2320 -7615.5507 297.6421 -9388.7827 -7615.5507 297.6421 -207.8151 -118.2096 30596.5419 -207.8151 -118.2096
ENERGY: 300000 4.2798 3.5732 3.0203 0.0000 -10686.2473 1375.6770 0.0000 0.0000 1834.2668 -7465.4302 307.8869 -9299.6970 -7582.2688 301.0896 -456.9692 -393.9612 30750.8136 -180.2931 -124.3986
ENERGY: 600000 2.5535 4.3997 1.9506 0.0000 -10810.3473 1440.1177 0.0000 0.0000 1773.9828 -7587.3430 297.7681 -9361.3258 -7580.0329 300.5329 -401.3809 -376.1572 31137.5507 -219.4320 -176.0943
ENERGY: 900000 3.1410 5.0745 1.8219 0.0000 -10794.7594 1393.5755 0.0000 0.0000 1741.6508 -7649.4956 292.3411 -9391.1464 -7587.4956 299.1277 -404.6650 -295.4850 30681.2711 -267.8097 -218.6099
ENERGY: 1200000 4.8440 3.6625 7.2993 0.0000 -10836.4620 1424.0485 0.0000 0.0000 1787.8129 -7608.7948 300.0895 -9396.6077 -7588.3467 299.7019 -614.9482 -569.5801 31061.2657 -217.0758 -171.6960
ENERGY: 1500000 4.3800 2.9214 8.4359 0.0000 -10747.1128 1389.1401 0.0000 0.0000 1770.4763 -7571.7591 297.1795 -9342.2354 -7584.3395 299.9403 -469.1709 -407.1820 30882.5701 -152.9640 -107.0478
TCL: Running FEP window  16: Lambda1 0.7500000000000001 Lambda2 0.8000000000000002 [dLambda 0.050000000000000044]
TCL: Setting parameter firsttimestep to 0
TCL: Setting parameter alchLambda to 0.7500000000000001
Info: NONBONDED TABLE R-SQUARED SPACING: 0.0625
Info: NONBONDED TABLE SIZE: 705 POINTS
TCL: Setting parameter alchLambda2 to 0.8000000000000002
Info: NONBONDED TABLE R-SQUARED SPACING: 0.0625
Info: NONBONDED TABLE SIZE: 705 POINTS
TCL: Running for 1500000 steps
ETITLE: TS BOND ANGLE DIHED IMPRP ELECT VDW BOUNDARY MISC KINETIC TOTAL TEMP POTENTIAL TOTALAVG TEMPAVG PRESSURE GPRESSURE VOLUME PRESSAVG GPRESSAVG
ENERGY: 0 4.3800 2.9214 8.4359 0.0000 -10747.6483 1389.6724 0.0000 0.0000 1769.5778 -7572.6608 297.0287 -9342.2386 -7572.6608 297.0287 -473.0336 -390.8870 30882.5701 -473.0336 -390.8870
ENERGY: 300000 2.4052 4.8456 1.6806 0.0000 -10930.4385 1515.0182 0.0000 0.0000 1798.4889 -7607.9999 301.8815 -9406.4888 -7586.2631 300.0081 340.3996 412.8046 30879.7341 128.6773 210.6612
ENERGY: 600000 2.2676 7.6578 5.7716 0.0000 -10868.7107 1469.5398 0.0000 0.0000 1740.0067 -7643.4672 292.0651 -9383.4739 -7585.1055 300.2813 -90.0379 -0.7550 30991.6985 98.0646 170.9547
ENERGY: 900000 3.7590 5.8049 4.7112 0.0000 -10912.0362 1466.2568 0.0000 0.0000 1828.9882 -7602.5161 307.0009 -9431.5043 -7582.6674 302.4992 -12.5959 51.7259 30608.2475 86.6423 160.4243
ENERGY: 1200000 3.7419 5.5933 3.8376 0.0000 -10765.5943 1364.5481 0.0000 0.0000 1759.8975 -7627.9759 295.4038 -9387.8735 -7585.4101 301.8020 -974.6183 -963.5865 31244.4791 -3.7565 56.7504
ENERGY: 1500000 4.3769 7.4935 4.6321 0.0000 -10862.8170 1454.9814 0.0000 0.0000 1859.9304 -7531.4026 312.1946 -9391.3329 -7586.7118 301.5418 -62.2177 1.2374 30416.6362 -19.7871 43.2101
TCL: Running FEP window  17: Lambda1 0.8000000000000002 Lambda2 0.8500000000000002 [dLambda 0.050000000000000044]
TCL: Setting parameter firsttimestep to 0
TCL: Setting parameter alchLambda to 0.8000000000000002
Info: NONBONDED TABLE R-SQUARED SPACING: 0.0625
Info: NONBONDED TABLE SIZE: 705 POINTS
TCL: Setting parameter alchLambda2 to 0.8500000000000002
Info: NONBONDED TABLE R-SQUARED SPACING: 0.0625
Info: NONBONDED TABLE SIZE: 705 POINTS
TCL: Running for 1500000 steps
ETITLE: TS BOND ANGLE DIHED IMPRP ELECT VDW BOUNDARY MISC KINETIC TOTAL TEMP POTENTIAL TOTALAVG TEMPAVG PRESSURE GPRESSURE VOLUME PRESSAVG GPRESSAVG
ENERGY: 0 4.3769 7.4935 4.6321 0.0000 -10863.7269 1455.4501 0.0000 0.0000 1859.0439 -7532.7303 312.0458 -9391.7742 -7532.7303 312.0458 -81.5919 12.6673 30416.6362 -81.5919 12.6673
ENERGY: 300000 2.8973 2.6156 2.7971 0.0000 -10918.5493 1523.3607 0.0000 0.0000 1800.7673 -7586.1114 302.2640 -9386.8787 -7552.6487 305.6675 516.3279 585.1043 30636.2539 -149.1896 -95.1276
ENERGY: 600000 4.0767 5.8167 7.3173 0.0000 -10811.0484 1374.8186 0.0000 0.0000 1753.6250 -7665.3940 294.3510 -9419.0190 -7574.8992 302.7891 -547.4658 -475.6266 30388.4646 -11.1642 40.6341
ENERGY: 900000 3.4965 5.8461 4.5029 0.0000 -10768.8724 1385.9717 0.0000 0.0000 1777.5130 -7591.5422 298.3607 -9369.0553 -7582.6399 300.2266 -814.0814 -672.2523 31037.7907 -75.9447 -22.8370
ENERGY: 1200000 8.0319 6.5993 5.5891 0.0000 -10913.1061 1452.0824 0.0000 0.0000 1800.6378 -7640.1656 302.2422 -9440.8034 -7593.2174 299.4609 -400.8016 -270.6696 30700.4923 -115.3848 -48.0250
ENERGY: 1500000 1.7604 1.9452 2.5307 0.0000 -10857.5316 1479.5550 0.0000 0.0000 1780.4839 -7591.2564 298.8593 -9371.7403 -7598.2896 299.5175 296.8829 370.4359 30804.7089 -141.0711 -73.3687
TCL: Running FEP window  18: Lambda1 0.8500000000000002 Lambda2 0.9000000000000002 [dLambda 0.050000000000000044]
TCL: Setting parameter firsttimestep to 0
TCL: Setting parameter alchLambda to 0.8500000000000002
Info: NONBONDED TABLE R-SQUARED SPACING: 0.0625
Info: NONBONDED TABLE SIZE: 705 POINTS
TCL: Setting parameter alchLambda2 to 0.9000000000000002
Info: NONBONDED TABLE R-SQUARED SPACING: 0.0625
Info: NONBONDED TABLE SIZE: 705 POINTS
TCL: Running for 1500000 steps
ETITLE: TS BOND ANGLE DIHED IMPRP ELECT VDW BOUNDARY MISC KINETIC TOTAL TEMP POTENTIAL TOTALAVG TEMPAVG PRESSURE GPRESSURE VOLUME PRESSAVG GPRESSAVG
ENERGY: 0 1.7604 1.9452 2.5307 0.0000 -10858.5246 1480.1194 0.0000 0.0000 1779.5939 -7592.5750 298.7099 -9372.1689 -7592.5750 298.7099 297.7201 387.0598 30804.7089 297.7201 387.0598
ENERGY: 300000 5.7931 5.6690 3.5666 0.0000 -10871.4524 1462.2446 0.0000 0.0000 1811.6349 -7582.5442 304.0881 -9394.1791 -7579.9024 302.1081 96.7316 151.0178 30831.7367 345.3944 395.8380
ENERGY: 600000 2.5370 2.8450 4.5602 0.0000 -10873.9675 1454.8192 0.0000 0.0000 1790.4883 -7618.7178 300.5386 -9409.2061 -7590.4043 300.9042 -469.7407 -349.0915 31318.8906 216.6107 272.9489
ENERGY: 900000 4.0487 5.4731 6.2885 0.0000 -10793.1365 1407.6897 0.0000 0.0000 1744.9694 -7624.6671 292.8981 -9369.6365 -7583.3502 300.1277 -482.7645 -399.4463 30813.1518 -35.9517 34.4681
ENERGY: 1200000 5.5558 4.6366 4.0039 0.0000 -10647.0317 1334.6837 0.0000 0.0000 1751.4291 -7546.7227 293.9824 -9298.1518 -7567.5067 301.0997 -782.7648 -697.0717 30907.5103 -65.1753 -2.7773
ENERGY: 1500000 2.4423 5.6318 5.2002 0.0000 -10825.5178 1516.1569 0.0000 0.0000 1791.2976 -7504.7891 300.6744 -9296.0867 -7563.0308 301.6142 664.3609 708.8003 31058.7740 -13.3705 41.7333
TCL: Running FEP window  19: Lambda1 0.9000000000000002 Lambda2 0.9500000000000003 [dLambda 0.050000000000000044]
TCL: Setting parameter firsttimestep to 0
TCL: Setting parameter alchLambda to 0.9000000000000002
Info: NONBONDED TABLE R-SQUARED SPACING: 0.0625
Info: NONBONDED TABLE SIZE: 705 POINTS
TCL: Setting parameter alchLambda2 to 0.9500000000000003
Info: NONBONDED TABLE R-SQUARED SPACING: 0.0625
Info: NONBONDED TABLE SIZE: 705 POINTS
TCL: Running for 1500000 steps
ETITLE: TS BOND ANGLE DIHED IMPRP ELECT VDW BOUNDARY MISC KINETIC TOTAL TEMP POTENTIAL TOTALAVG TEMPAVG PRESSURE GPRESSURE VOLUME PRESSAVG GPRESSAVG
ENERGY: 0 2.4423 5.6318 5.2002 0.0000 -10826.7685 1516.9731 0.0000 0.0000 1790.3927 -7506.1285 300.5225 -9296.5212 -7506.1285 300.5225 655.0171 728.0431 31058.7740 655.0171 728.0431
ENERGY: 300000 2.8656 4.0484 3.4155 0.0000 -10959.0904 1601.4076 0.0000 0.0000 1730.9789 -7616.3744 290.5498 -9347.3533 -7560.2377 300.1154 1052.6676 1224.8739 30926.2171 340.1002 418.1064
ENERGY: 600000 2.5340 5.4986 3.7228 0.0000 -10882.7916 1439.4705 0.0000 0.0000 1732.4300 -7699.1357 290.7933 -9431.5657 -7591.7380 297.5915 -252.7496 -184.5670 30699.5297 133.1141 207.7776
ENERGY: 900000 6.3756 3.4190 3.7344 0.0000 -10816.2638 1447.0443 0.0000 0.0000 1795.4360 -7560.2545 301.3691 -9355.6905 -7585.6179 298.3058 -44.8315 19.7736 30986.8477 35.2863 112.5393
ENERGY: 1200000 1.6318 3.1517 2.9842 0.0000 -10890.8702 1416.7447 0.0000 0.0000 1780.3687 -7685.9890 298.8400 -9466.3577 -7595.4162 299.3521 -669.7529 -638.8739 31000.3920 -146.5342 -76.6077
ENERGY: 1500000 2.1811 3.5121 5.8992 0.0000 -10927.9110 1519.4573 0.0000 0.0000 1843.9109 -7552.9504 309.5057 -9396.8613 -7591.1016 300.0335 863.6893 801.3261 30364.9281 -184.2175 -119.2607
TCL: Running FEP window  20: Lambda1 0.9500000000000003 Lambda2 1.0    [dLambda 0.04999999999999971]
TCL: Setting parameter firsttimestep to 0
TCL: Setting parameter alchLambda to 0.9500000000000003
Info: NONBONDED TABLE R-SQUARED SPACING: 0.0625
Info: NONBONDED TABLE SIZE: 705 POINTS
TCL: Setting parameter alchLambda2 to 1.0
Info: NONBONDED TABLE R-SQUARED SPACING: 0.0625
Info: NONBONDED TABLE SIZE: 705 POINTS
TCL: Running for 1500000 steps
ETITLE: TS BOND ANGLE DIHED IMPRP ELECT VDW BOUNDARY MISC KINETIC TOTAL TEMP POTENTIAL TOTALAVG TEMPAVG PRESSURE GPRESSURE VOLUME PRESSAVG GPRESSAVG
ENERGY: 0 2.1811 3.5121 5.8992 0.0000 -10929.7356 1520.6113 0.0000 0.0000 1843.0085 -7554.5234 309.3543 -9397.5319 -7554.5234 309.3543 746.1539 820.5757 30364.9281 746.1539 820.5757
ENERGY: 300000 2.5876 4.6806 5.5482 0.0000 -10749.9563 1375.5885 0.0000 0.0000 1852.9392 -7508.6121 311.0212 -9361.5513 -7587.9186 305.3162 -473.8898 -492.5846 31028.4512 -183.3963 -112.3272
ENERGY: 600000 2.4880 2.6144 4.2035 0.0000 -10777.2543 1442.5688 0.0000 0.0000 1811.0087 -7514.3709 303.9830 -9325.3796 -7569.2743 305.0585 -83.2916 -54.6804 31382.6776 -114.6473 -51.9355
ENERGY: 900000 1.2337 3.4960 3.9775 0.0000 -10782.1279 1399.3589 0.0000 0.0000 1776.0468 -7598.0148 298.1146 -9374.0617 -7580.7280 303.4014 -388.7557 -337.8821 30991.1607 -71.4949 -6.1584
ENERGY: 1200000 4.8165 4.0850 5.9446 0.0000 -10812.5962 1403.1639 0.0000 0.0000 1727.7116 -7666.8746 290.0013 -9394.5862 -7588.6604 302.9623 -413.2989 -405.4805 30927.9611 -48.3689 6.6799
ENERGY: 1500000 4.4745 6.1823 3.5858 0.0000 -10893.0759 1544.4952 0.0000 0.0000 1779.4591 -7554.8789 298.6873 -9334.3380 -7585.6234 302.9177 815.1719 854.6695 30887.8921 -38.4663 18.3744
TCL: Exiting due to exit command.
