Info: SIMULATION PARAMETERS:
Info: TIMESTEP               2
Info: NUMBER OF STEPS        0
Info: STEPS PER CYCLE        10
Info: PERIODIC CELL BASIS 1  30.6978 0 0
Info: PERIODIC CELL BASIS 2  0 31.3936 0
Info: PERIODIC CELL BASIS 3  0 0 31.2752
Info: PERIODIC CELL CENTER   0 0 0
Info: WRAPPING WATERS AROUND PERIODIC BOUNDARIES ON OUTPUT.
Info: WRAPPING ALL CLUSTERS AROUND PERIODIC BOUNDARIES ON OUTPUT.
Info: FIRST LDB TIMESTEP     50
Info: LAST LDB TIMESTEP     -1
Info: HOM BACKGROUND SCALING 1
Info: PME BACKGROUND SCALING 1
Info: MIN ATOMS PER PATCH    40
Info: EMPTY PATCH LOAD       40 ATOMS
Info: VELOCITY FILE          mobley_2146331_equil.vel
Info: CENTER OF MASS MOVING INITIALLY? NO
Info: DIELECTRIC             1
Info: EXCLUDE                SCALED ONE-FOUR
Info: 1-4 ELECTROSTATICS SCALED BY 0.833333
Info: MODIFIED 1-4 VDW PARAMETERS WILL BE USED
Info: DCD FILENAME           mobley_2146331_prod.dcd
Info: DCD FREQUENCY          100000
Info: DCD FIRST STEP         100000
Info: DCD FILE WILL CONTAIN UNIT CELL DATA
Info: XST FILENAME           mobley_2146331_prod.xst
Info: XST FREQUENCY          100000
Info: NO VELOCITY DCD OUTPUT
Info: NO FORCE DCD OUTPUT
Info: OUTPUT FILENAME        mobley_2146331_prod
Info: BINARY OUTPUT FILES WILL BE USED
Info: RESTART FILENAME       mobley_2146331_prod.restart
Info: RESTART FREQUENCY      100000
Info: BINARY RESTART FILES WILL BE USED
Info: CUTOFF                 9
Info: PAIRLIST DISTANCE      11
Info: PAIRLIST SHRINK RATE   0.01
Info: PAIRLIST GROW RATE     0.01
Info: PAIRLIST TRIGGER       0.3
Info: PAIRLISTS PER CYCLE    2
Info: PAIRLISTS ENABLED
Info: MARGIN                 2
Info: HYDROGEN GROUP CUTOFF  2.5
Info: PATCH DIMENSION        15.5
Info: ENERGY OUTPUT STEPS    100000
Info: ENERGY EVALUATION STEPS    100000
Info: OUTPUT ENERGY PRECISION 4
Info: CROSSTERM ENERGY INCLUDED IN DIHEDRAL
Info: TIMING OUTPUT STEPS    1000000
Info: PRESSURE OUTPUT STEPS  100000
Info: ALCHEMICAL FEP ON
Info: FEP CURRENT LAMBDA VALUE     1
Info: FEP COMPARISON LAMBDA VALUE  0.95
Info: FEP INTRA-ALCHEMICAL NON-BONDED INTERACTIONS WILL BE RETAINED
Info: FEP INTRA-ALCHEMICAL BONDED INTERACTIONS WILL BE RETAINED
Info: FEP VDW SHIFTING COEFFICIENT 5
Info: FEP ELEC. ACTIVE FOR ANNIHILATED PARTICLES BETWEEN LAMBDA = 0 AND LAMBDA = 0.5
Info: FEP ELEC. ACTIVE FOR EXNIHILATED PARTICLES BETWEEN LAMBDA = 0.5 AND LAMBDA = 1
Info: FEP VDW ACTIVE FOR ANNIHILATED PARTICLES BETWEEN LAMBDA = 0 AND LAMBDA = 1
Info: FEP VDW ACTIVE FOR EXNIHILATED PARTICLES BETWEEN LAMBDA = 0 AND LAMBDA = 1
Info: FEP BOND ACTIVE FOR ANNIHILATED PARTICLES BETWEEN LAMBDA = 1 AND LAMBDA = 1
Info: FEP BOND ACTIVE FOR EXNIHILATED PARTICLES BETWEEN LAMBDA = 0 AND LAMBDA = 0
Info: LANGEVIN DYNAMICS ACTIVE
Info: LANGEVIN TEMPERATURE   300
Info: LANGEVIN USING BBK INTEGRATOR
Info: LANGEVIN DAMPING COEFFICIENT IS 1 INVERSE PS
Info: LANGEVIN DYNAMICS APPLIED TO HYDROGENS
Info: LANGEVIN PISTON PRESSURE CONTROL ACTIVE
Info:        TARGET PRESSURE IS 1.01325 BAR
Info:     OSCILLATION PERIOD IS 50 FS
Info:             DECAY TIME IS 25 FS
Info:     PISTON TEMPERATURE IS 300 K
Info:       PRESSURE CONTROL IS GROUP-BASED
Info:    INITIAL STRAIN RATE IS -9.23903e-05 -9.23903e-05 -9.23903e-05
Info:       CELL FLUCTUATION IS ISOTROPIC
Info: PARTICLE MESH EWALD (PME) ACTIVE
Info: PME TOLERANCE               1e-06
Info: PME EWALD COEFFICIENT       0.348832
Info: PME INTERPOLATION ORDER     4
Info: PME GRID DIMENSIONS         32 32 32
Info: PME MAXIMUM GRID SPACING    1
Info: PME CALCULATION WILL BE PERFORMED ON GPU
Info: FULL ELECTROSTATIC EVALUATION FREQUENCY      2
Info: USING VERLET I (r-RESPA) MTS SCHEME.
Info: C1 SPLITTING OF LONG RANGE ELECTROSTATICS
Info: PLACING ATOMS IN PATCHES BY HYDROGEN GROUPS
Info: RIGID BONDS TO HYDROGEN : ALL
Info:         ERROR TOLERANCE : 1e-08
Info:          MAX ITERATIONS : 100
Info: RIGID WATER USING SETTLE ALGORITHM
Info: RANDOM NUMBER SEED     1742482419
Info: USE HYDROGEN BONDS?    NO
Info: Using AMBER format force field!
Info: AMBER PARM FILE        mobley_2146331.prmtop
Info: COORDINATE PDB         mobley_2146331.pdb
Info: Exclusions will be read from PARM file!
Info: SCNB (VDW SCALING)     2
Info: USING ARITHMETIC MEAN TO COMBINE L-J SIGMA PARAMETERS
Info: BINARY COORDINATES     mobley_2146331_equil.coor
Info: SUMMARY OF PARAMETERS:
Info: 4 BONDS
Info: 2 ANGLES
Info:   2 HARMONIC
Info:   0 COSINE-BASED
Info: 1 DIHEDRAL
Info: 0 IMPROPER
Info: 0 CROSSTERM
Info: 0 VDW
Info: 15 VDW_PAIRS
Info: 0 NBTHOLE_PAIRS
Info: To read alchdata from file: mobley_2146331.pdb
Info: To read alchflag data from column: 5
Info: STRUCTURE SUMMARY:
Info: 2944 ATOMS
Info: 2943 BONDS
Info: 3 ANGLES
Info: 1 DIHEDRALS
Info: 0 IMPROPERS
Info: 0 CROSSTERMS
Info: 2946 EXCLUSIONS
Info: 2942 RIGID BONDS
Info: ALCH: 0 ATOMS TO DISAPPEAR IN FINAL STATE
Info: ALCH: 4 ATOMS TO APPEAR IN FINAL STATE
Info: 5890 DEGREES OF FREEDOM
Info: 982 HYDROGEN GROUPS
Info: 3 ATOMS IN LARGEST HYDROGEN GROUP
Info: 982 MIGRATION GROUPS
Info: 3 ATOMS IN LARGEST MIGRATION GROUP
Info: TOTAL MASS = 17685.7 amu
Info: TOTAL CHARGE = -9.9998e-05 e
Info: MASS DENSITY = 0.97439 g/cm^3
Info: ATOM DENSITY = 0.0976762 atoms/A^3
Info: ADDED 0 IMPLICIT EXCLUSIONS
Info: NONBONDED TABLE R-SQUARED SPACING: 0.0625
Info: NONBONDED TABLE SIZE: 705 POINTS
Info: REMOVING COM VELOCITY 0.10735 -0.0233904 -0.0808854
Info: Use 3D box decompostion in PME FFT.
Info: Updated CUDA force table with 4096 elements.
Info: Updated CUDA LJ table with 5 x 5 elements.
Info: Found 7 unique exclusion lists needing 8 bytes
TCL: Running for 1500000 steps
ETITLE: TS BOND ANGLE DIHED IMPRP ELECT VDW BOUNDARY MISC KINETIC TOTAL TEMP POTENTIAL TOTALAVG TEMPAVG PRESSURE GPRESSURE VOLUME PRESSAVG GPRESSAVG
ENERGY: 0 0.1076 1.1658 0.0005 0.0000 -10640.7062 1386.5792 0.0000 0.0000 1698.6822 -7554.1709 290.2600 -9252.8531 -7554.1709 290.2600 -404.6549 -320.5860 30140.3890 -404.6549 -320.5860
ENERGY: 300000 0.4805 0.4062 0.4913 0.0000 -10623.2750 1430.3608 0.0000 0.0000 1757.9701 -7433.5660 300.3908 -9191.5361 -7495.5381 298.5222 278.2607 311.2205 30246.9157 -227.8830 -180.2659
ENERGY: 600000 0.3182 0.0731 0.1486 0.0000 -10582.6396 1334.2631 0.0000 0.0000 1750.1558 -7497.6808 299.0555 -9247.8365 -7510.6345 298.7652 -753.0452 -662.1792 30353.4977 -220.8763 -161.3583
ENERGY: 900000 0.7018 0.4918 0.2091 0.0000 -10688.3214 1392.3482 0.0000 0.0000 1695.1838 -7599.3868 289.6622 -9294.5706 -7520.1682 297.6093 -571.8541 -550.2723 30369.4588 -222.3784 -171.0323
ENERGY: 1200000 0.3498 2.4840 0.1402 0.0000 -10785.7449 1468.7149 0.0000 0.0000 1803.1119 -7510.9441 308.1043 -9314.0560 -7527.5083 299.0411 86.7000 147.4197 30587.5360 -265.0048 -209.6218
ENERGY: 1500000 0.3574 1.4007 0.4297 0.0000 -10777.2874 1449.7926 0.0000 0.0000 1745.7691 -7579.5379 298.3059 -9325.3070 -7535.8042 298.7307 -121.1039 -47.6160 30481.8431 -247.4883 -200.2544
TCL: Running FEP window   2: Lambda1 0.95   Lambda2 0.8999999999999999 [dLambda -0.050000000000000044]
TCL: Setting parameter firsttimestep to 0
TCL: Setting parameter alchLambda to 0.95
Info: NONBONDED TABLE R-SQUARED SPACING: 0.0625
Info: NONBONDED TABLE SIZE: 705 POINTS
TCL: Setting parameter alchLambda2 to 0.8999999999999999
Info: NONBONDED TABLE R-SQUARED SPACING: 0.0625
Info: NONBONDED TABLE SIZE: 705 POINTS
TCL: Running for 1500000 steps
ETITLE: TS BOND ANGLE DIHED IMPRP ELECT VDW BOUNDARY MISC KINETIC TOTAL TEMP POTENTIAL TOTALAVG TEMPAVG PRESSURE GPRESSURE VOLUME PRESSAVG GPRESSAVG
ENERGY: 0 0.3574 1.4007 0.4297 0.0000 -10775.9647 1449.3571 0.0000 0.0000 1744.8722 -7579.5475 298.1527 -9324.4197 -7579.5475 298.1527 -129.1360 -52.1989 30481.8431 -129.1360 -52.1989
ENERGY: 300000 0.1054 2.3576 0.2283 0.0000 -10789.5792 1449.2712 0.0000 0.0000 1713.7052 -7623.9116 292.8271 -9337.6167 -7573.3453 298.3017 -268.9641 -142.1004 30513.7108 -136.6443 -35.6117
ENERGY: 600000 0.0159 0.4363 0.0889 0.0000 -10818.4537 1522.2531 0.0000 0.0000 1816.8020 -7478.8575 310.4436 -9295.6595 -7536.0751 300.1588 354.2547 387.7730 30612.7765 37.5774 117.7910
ENERGY: 900000 0.0066 1.1028 1.1505 0.0000 -10639.5484 1398.5972 0.0000 0.0000 1733.4099 -7505.2815 296.1941 -9238.6914 -7530.3561 299.1404 -476.2293 -397.7401 30563.7091 -74.3202 2.9118
ENERGY: 1200000 0.0426 0.5677 0.0207 0.0000 -10726.7197 1487.0835 0.0000 0.0000 1797.4210 -7441.5842 307.1319 -9239.0052 -7525.2076 299.5209 589.3805 552.5596 30162.2745 -15.0749 52.1119
ENERGY: 1500000 0.0001 0.9880 0.0008 0.0000 -10549.3974 1355.3345 0.0000 0.0000 1809.9440 -7383.1299 309.2717 -9193.0739 -7523.0990 299.1222 -608.8400 -578.0172 30955.7066 -129.5012 -65.6514
TCL: Running FEP window   3: Lambda1 0.8999999999999999 Lambda2 0.8499999999999999 [dLambda -0.050000000000000044]
TCL: Setting parameter firsttimestep to 0
TCL: Setting parameter alchLambda to 0.8999999999999999
Info: NONBONDED TABLE R-SQUARED SPACING: 0.0625
Info: NONBONDED TABLE SIZE: 705 POINTS
TCL: Setting parameter alchLambda2 to 0.8499999999999999
Info: NONBONDED TABLE R-SQUARED SPACING: 0.0625
Info: NONBONDED TABLE SIZE: 705 POINTS
TCL: Running for 1500000 steps
ETITLE: TS BOND ANGLE DIHED IMPRP ELECT VDW BOUNDARY MISC KINETIC TOTAL TEMP POTENTIAL TOTALAVG TEMPAVG PRESSURE GPRESSURE VOLUME PRESSAVG GPRESSAVG
ENERGY: 0 0.0001 0.9880 0.0008 0.0000 -10548.5875 1355.5152 0.0000 0.0000 1809.0648 -7383.0186 309.1215 -9192.0834 -7383.0186 309.1215 -649.4310 -579.9535 30955.7066 -649.4310 -579.9535
ENERGY: 300000 0.4010 0.8381 0.0985 0.0000 -10766.6182 1529.6905 0.0000 0.0000 1698.3890 -7537.2012 290.2099 -9235.5902 -7466.7818 300.0205 846.4651 899.4677 30028.1035 7.0668 73.2176
ENERGY: 600000 1.4611 0.3598 0.0469 0.0000 -10633.6193 1386.2391 0.0000 0.0000 1794.4166 -7451.0959 306.6185 -9245.5124 -7473.9421 301.2163 -475.4812 -385.5112 30460.8287 -181.3485 -114.3932
ENERGY: 900000 0.1070 0.7243 0.2977 0.0000 -10761.5498 1471.2341 0.0000 0.0000 1813.9206 -7475.2660 309.9512 -9289.1866 -7478.7291 301.9167 240.0386 287.8015 30196.3638 -184.0342 -123.6319
ENERGY: 1200000 0.0032 0.5664 0.0005 0.0000 -10727.6967 1518.8342 0.0000 0.0000 1813.4883 -7394.8041 309.8774 -9208.2924 -7477.4669 302.4894 584.2468 698.6290 30575.7731 -49.8974 13.5488
ENERGY: 1500000 0.1347 0.5139 0.6475 0.0000 -10839.1148 1525.7333 0.0000 0.0000 1737.3069 -7574.7785 296.8600 -9312.0853 -7489.3231 302.1537 504.7541 604.5461 30117.1608 -22.8432 34.1426
TCL: Running FEP window   4: Lambda1 0.8499999999999999 Lambda2 0.7999999999999998 [dLambda -0.050000000000000044]
TCL: Setting parameter firsttimestep to 0
TCL: Setting parameter alchLambda to 0.8499999999999999
Info: NONBONDED TABLE R-SQUARED SPACING: 0.0625
Info: NONBONDED TABLE SIZE: 705 POINTS
TCL: Setting parameter alchLambda2 to 0.7999999999999998
Info: NONBONDED TABLE R-SQUARED SPACING: 0.0625
Info: NONBONDED TABLE SIZE: 705 POINTS
TCL: Running for 1500000 steps
ETITLE: TS BOND ANGLE DIHED IMPRP ELECT VDW BOUNDARY MISC KINETIC TOTAL TEMP POTENTIAL TOTALAVG TEMPAVG PRESSURE GPRESSURE VOLUME PRESSAVG GPRESSAVG
ENERGY: 0 0.1347 0.5139 0.6475 0.0000 -10837.9531 1525.4445 0.0000 0.0000 1736.4168 -7574.7957 296.7079 -9311.2125 -7574.7957 296.7079 511.7804 599.9752 30117.1608 511.7804 599.9752
ENERGY: 300000 0.8326 2.1265 0.2432 0.0000 -10772.8752 1466.0407 0.0000 0.0000 1741.2808 -7562.3514 297.5390 -9303.6322 -7520.8219 298.3230 163.1300 188.3386 30071.7847 -128.1528 -79.6752
ENERGY: 600000 0.0356 0.3491 0.0125 0.0000 -10704.0537 1443.6712 0.0000 0.0000 1753.0769 -7506.9085 299.5546 -9259.9854 -7506.3473 299.0483 135.6689 182.6735 30090.9674 -159.5025 -116.3013
ENERGY: 900000 0.1625 1.4819 0.6665 0.0000 -10683.0833 1384.2182 0.0000 0.0000 1707.4551 -7589.0991 291.7591 -9296.5542 -7512.4656 298.4942 -698.3555 -697.1662 30704.0180 -143.0357 -97.9888
ENERGY: 1200000 0.0775 0.8944 0.0995 0.0000 -10683.4423 1444.8771 0.0000 0.0000 1734.6996 -7502.7941 296.4145 -9237.4937 -7511.4851 298.5561 155.2798 190.5044 30422.7660 -68.2775 -24.3403
ENERGY: 1500000 0.0194 0.3229 0.1297 0.0000 -10705.7241 1480.2445 0.0000 0.0000 1728.9961 -7496.0115 295.4399 -9225.0076 -7510.9203 297.9485 661.3676 690.1697 30209.0104 48.0568 92.9927
TCL: Running FEP window   5: Lambda1 0.7999999999999998 Lambda2 0.7499999999999998 [dLambda -0.050000000000000044]
TCL: Setting parameter firsttimestep to 0
TCL: Setting parameter alchLambda to 0.7999999999999998
Info: NONBONDED TABLE R-SQUARED SPACING: 0.0625
Info: NONBONDED TABLE SIZE: 705 POINTS
TCL: Setting parameter alchLambda2 to 0.7499999999999998
Info: NONBONDED TABLE R-SQUARED SPACING: 0.0625
Info: NONBONDED TABLE SIZE: 705 POINTS
TCL: Running for 1500000 steps
ETITLE: TS BOND ANGLE DIHED IMPRP ELECT VDW BOUNDARY MISC KINETIC TOTAL TEMP POTENTIAL TOTALAVG TEMPAVG PRESSURE GPRESSURE VOLUME PRESSAVG GPRESSAVG
ENERGY: 0 0.0194 0.3229 0.1297 0.0000 -10705.1707 1480.4674 0.0000 0.0000 1728.1396 -7496.0918 295.2935 -9224.2313 -7496.0918 295.2935 619.3367 691.6981 30209.0104 619.3367 691.6981
ENERGY: 300000 0.0803 0.5457 0.5293 0.0000 -10762.2767 1475.4390 0.0000 0.0000 1765.3757 -7520.3067 301.6562 -9285.6824 -7511.5912 298.9499 406.6733 475.8741 30095.6354 352.7740 425.3801
ENERGY: 600000 0.2355 0.8745 0.8247 0.0000 -10658.8716 1433.8355 0.0000 0.0000 1739.9737 -7483.1276 297.3156 -9223.1013 -7495.8277 299.5743 -84.3112 10.8500 30425.3306 316.7282 391.1103
ENERGY: 900000 0.0189 0.2301 0.2724 0.0000 -10712.2709 1445.0336 0.0000 0.0000 1783.5094 -7483.2066 304.7548 -9266.7160 -7488.9400 299.9853 10.9546 60.1836 30407.1359 154.3849 226.8109
ENERGY: 1200000 0.0190 0.5571 0.1928 0.0000 -10850.7805 1492.8529 0.0000 0.0000 1754.1483 -7603.0104 299.7377 -9357.1587 -7501.7769 299.4802 101.1186 180.9442 30128.3759 77.8466 151.1456
ENERGY: 1500000 0.1747 0.4277 0.0016 0.0000 -10761.2679 1522.5647 0.0000 0.0000 1799.9267 -7438.1725 307.5600 -9238.0992 -7497.5741 300.1135 547.7245 647.9776 30565.7348 20.8836 98.7747
TCL: Running FEP window   6: Lambda1 0.7499999999999998 Lambda2 0.6999999999999997 [dLambda -0.050000000000000044]
TCL: Setting parameter firsttimestep to 0
TCL: Setting parameter alchLambda to 0.7499999999999998
Info: NONBONDED TABLE R-SQUARED SPACING: 0.0625
Info: NONBONDED TABLE SIZE: 705 POINTS
TCL: Setting parameter alchLambda2 to 0.6999999999999997
Info: NONBONDED TABLE R-SQUARED SPACING: 0.0625
Info: NONBONDED TABLE SIZE: 705 POINTS
TCL: Running for 1500000 steps
ETITLE: TS BOND ANGLE DIHED IMPRP ELECT VDW BOUNDARY MISC KINETIC TOTAL TEMP POTENTIAL TOTALAVG TEMPAVG PRESSURE GPRESSURE VOLUME PRESSAVG GPRESSAVG
ENERGY: 0 0.1747 0.4277 0.0016 0.0000 -10760.6908 1522.1366 0.0000 0.0000 1799.0586 -7438.8917 307.4117 -9237.9503 -7438.8917 307.4117 559.1538 639.7784 30565.7348 559.1538 639.7784
ENERGY: 300000 0.0003 0.0801 0.0030 0.0000 -10811.3331 1490.1313 0.0000 0.0000 1712.8612 -7608.2571 292.6828 -9321.1184 -7509.2248 298.4778 111.6424 137.5477 30538.3985 314.4045 358.3116
ENERGY: 600000 0.0250 0.3507 0.0409 0.0000 -10683.0550 1420.0286 0.0000 0.0000 1711.0929 -7551.5167 292.3807 -9262.6097 -7508.3255 299.1332 -149.5038 -85.9730 30411.6146 33.0344 85.7591
ENERGY: 900000 0.6694 0.8544 0.0183 0.0000 -10772.7470 1538.0093 0.0000 0.0000 1796.0846 -7437.1110 306.9035 -9233.1956 -7507.2697 301.2548 873.1619 945.6524 30162.4955 79.2314 129.7850
ENERGY: 1200000 0.0943 2.4870 0.1568 0.0000 -10775.2378 1481.7822 0.0000 0.0000 1748.6673 -7542.0503 298.8012 -9290.7175 -7510.6888 299.8611 -44.7297 17.1429 30695.1729 79.6822 135.6148
ENERGY: 1500000 0.0094 0.2975 1.0781 0.0000 -10686.8443 1403.9672 0.0000 0.0000 1768.4600 -7513.0319 302.1832 -9281.4920 -7509.4323 300.4818 -37.0745 -14.7731 29920.5007 53.6572 102.4081
TCL: Running FEP window   7: Lambda1 0.6999999999999997 Lambda2 0.6499999999999997 [dLambda -0.050000000000000044]
TCL: Setting parameter firsttimestep to 0
TCL: Setting parameter alchLambda to 0.6999999999999997
Info: NONBONDED TABLE R-SQUARED SPACING: 0.0625
Info: NONBONDED TABLE SIZE: 705 POINTS
TCL: Setting parameter alchLambda2 to 0.6499999999999997
Info: NONBONDED TABLE R-SQUARED SPACING: 0.0625
Info: NONBONDED TABLE SIZE: 705 POINTS
TCL: Running for 1500000 steps
ETITLE: TS BOND ANGLE DIHED IMPRP ELECT VDW BOUNDARY MISC KINETIC TOTAL TEMP POTENTIAL TOTALAVG TEMPAVG PRESSURE GPRESSURE VOLUME PRESSAVG GPRESSAVG
ENERGY: 0 0.0094 0.2975 1.0781 0.0000 -10685.6542 1403.6870 0.0000 0.0000 1767.6175 -7512.9646 302.0393 -9280.5821 -7512.9646 302.0393 -106.9820 -19.3247 29920.5007 -106.9820 -19.3247
ENERGY: 300000 0.0561 1.5246 0.0005 0.0000 -10677.2295 1462.5962 0.0000 0.0000 1689.7418 -7523.3104 288.7323 -9213.0522 -7525.9612 296.2343 49.2206 143.5529 30545.1160 -297.1732 -235.5981
ENERGY: 600000 0.0311 0.2433 0.0174 0.0000 -10713.2737 1442.9895 0.0000 0.0000 1761.8690 -7508.1234 301.0570 -9269.9924 -7497.8266 299.3901 24.9987 129.7898 30240.7112 -282.1511 -215.8653
ENERGY: 900000 0.9139 0.4789 0.3744 0.0000 -10732.8874 1488.4197 0.0000 0.0000 1751.7790 -7490.9214 299.3329 -9242.7004 -7501.6940 299.1583 134.6396 216.0816 30473.0874 -110.1208 -43.2699
ENERGY: 1200000 0.0136 0.3102 0.5593 0.0000 -10512.5327 1391.7440 0.0000 0.0000 1723.3061 -7396.5995 294.4676 -9119.9056 -7495.3327 298.1066 -80.3608 -76.3975 30829.9334 -46.6588 9.7567
ENERGY: 1500000 0.3846 0.0736 0.5735 0.0000 -10757.5798 1440.7494 0.0000 0.0000 1736.1486 -7579.6502 296.6620 -9315.7988 -7498.5471 297.8694 -362.3057 -307.3723 30561.6655 -125.5436 -64.9098
TCL: Running FEP window   8: Lambda1 0.6499999999999997 Lambda2 0.5999999999999996 [dLambda -0.050000000000000044]
TCL: Setting parameter firsttimestep to 0
TCL: Setting parameter alchLambda to 0.6499999999999997
Info: NONBONDED TABLE R-SQUARED SPACING: 0.0625
Info: NONBONDED TABLE SIZE: 705 POINTS
TCL: Setting parameter alchLambda2 to 0.5999999999999996
Info: NONBONDED TABLE R-SQUARED SPACING: 0.0625
Info: NONBONDED TABLE SIZE: 705 POINTS
TCL: Running for 1500000 steps
ETITLE: TS BOND ANGLE DIHED IMPRP ELECT VDW BOUNDARY MISC KINETIC TOTAL TEMP POTENTIAL TOTALAVG TEMPAVG PRESSURE GPRESSURE VOLUME PRESSAVG GPRESSAVG
ENERGY: 0 0.3846 0.0736 0.5735 0.0000 -10757.2663 1440.8255 0.0000 0.0000 1735.2721 -7580.1371 296.5123 -9315.4092 -7580.1371 296.5123 -386.0449 -311.0765 30561.6655 -386.0449 -311.0765
ENERGY: 300000 0.0773 0.6055 0.1410 0.0000 -10662.5610 1462.1637 0.0000 0.0000 1746.2672 -7453.3063 298.3910 -9199.5735 -7534.5486 298.2147 465.7189 415.6232 30305.1092 41.7562 67.5085
ENERGY: 600000 0.0875 0.0563 0.0937 0.0000 -10756.3398 1501.6419 0.0000 0.0000 1802.1247 -7452.3357 307.9356 -9254.4604 -7501.1062 303.6191 623.5522 720.4290 30050.9891 263.5374 313.0522
ENERGY: 900000 0.2344 0.2058 0.0832 0.0000 -10754.9657 1526.5243 0.0000 0.0000 1741.4529 -7486.4652 297.5684 -9227.9180 -7500.2009 302.1842 569.7159 650.6406 30604.6456 304.4872 364.9051
ENERGY: 1200000 0.6365 0.2994 0.1566 0.0000 -10843.2603 1490.2848 0.0000 0.0000 1743.4710 -7608.4120 297.9132 -9351.8830 -7510.3680 300.9440 9.4162 86.2362 30216.3463 198.6354 255.0979
ENERGY: 1500000 0.1316 0.7552 0.0188 0.0000 -10754.5974 1443.4207 0.0000 0.0000 1756.5622 -7553.7089 300.1502 -9310.2711 -7510.3743 300.7530 -98.3264 -43.3886 30211.1734 141.0557 197.4169
TCL: Running FEP window   9: Lambda1 0.5999999999999996 Lambda2 0.5499999999999996 [dLambda -0.050000000000000044]
TCL: Setting parameter firsttimestep to 0
TCL: Setting parameter alchLambda to 0.5999999999999996
Info: NONBONDED TABLE R-SQUARED SPACING: 0.0625
Info: NONBONDED TABLE SIZE: 705 POINTS
TCL: Setting parameter alchLambda2 to 0.5499999999999996
Info: NONBONDED TABLE R-SQUARED SPACING: 0.0625
Info: NONBONDED TABLE SIZE: 705 POINTS
TCL: Running for 1500000 steps
ETITLE: TS BOND ANGLE DIHED IMPRP ELECT VDW BOUNDARY MISC KINETIC TOTAL TEMP POTENTIAL TOTALAVG TEMPAVG PRESSURE GPRESSURE VOLUME PRESSAVG GPRESSAVG
ENERGY: 0 0.1316 0.7552 0.0188 0.0000 -10753.7074 1443.3408 0.0000 0.0000 1755.6420 -7553.8191 299.9929 -9309.4611 -7553.8191 299.9929 -129.0118 -45.1962 30211.1734 -129.0118 -45.1962
ENERGY: 300000 0.1995 0.6316 0.0322 0.0000 -10709.7794 1421.5536 0.0000 0.0000 1743.5196 -7543.8428 297.9216 -9287.3624 -7527.5876 297.3504 -145.5393 -74.4375 30357.6199 -51.1805 29.7763
ENERGY: 600000 0.4097 2.3933 0.8630 0.0000 -10635.4570 1368.8947 0.0000 0.0000 1726.9567 -7535.9397 295.0914 -9262.8964 -7517.7276 298.6731 -671.9063 -587.5198 30368.3002 -176.9054 -108.4932
ENERGY: 900000 0.1067 2.4625 0.1374 0.0000 -10777.6977 1477.3433 0.0000 0.0000 1700.2886 -7597.3591 290.5345 -9297.6477 -7521.1949 298.4402 45.3398 95.2981 30366.4816 -219.9716 -153.8769
ENERGY: 1200000 3.3537 0.8676 0.1365 0.0000 -10608.0714 1375.5624 0.0000 0.0000 1712.1590 -7515.9923 292.5629 -9228.1513 -7529.1903 297.6540 -770.5870 -747.8598 30694.0004 -183.0774 -119.8599
ENERGY: 1500000 0.0602 0.7472 2.1000 0.0000 -10599.4911 1382.4143 0.0000 0.0000 1765.6675 -7448.5019 301.7060 -9214.1694 -7527.3534 298.2337 -461.8041 -387.3548 30414.5576 -151.1893 -83.8030
TCL: Running FEP window  10: Lambda1 0.5499999999999996 Lambda2 0.4999999999999996 [dLambda -0.04999999999999999]
TCL: Setting parameter firsttimestep to 0
TCL: Setting parameter alchLambda to 0.5499999999999996
Info: NONBONDED TABLE R-SQUARED SPACING: 0.0625
Info: NONBONDED TABLE SIZE: 705 POINTS
TCL: Setting parameter alchLambda2 to 0.4999999999999996
Info: NONBONDED TABLE R-SQUARED SPACING: 0.0625
Info: NONBONDED TABLE SIZE: 705 POINTS
TCL: Running for 1500000 steps
ETITLE: TS BOND ANGLE DIHED IMPRP ELECT VDW BOUNDARY MISC KINETIC TOTAL TEMP POTENTIAL TOTALAVG TEMPAVG PRESSURE GPRESSURE VOLUME PRESSAVG GPRESSAVG
ENERGY: 0 0.0602 0.7472 2.1000 0.0000 -10599.2571 1382.3668 0.0000 0.0000 1764.7849 -7449.1980 301.5552 -9213.9828 -7449.1980 301.5552 -467.8787 -389.8525 30414.5576 -467.8787 -389.8525
ENERGY: 300000 0.0002 0.7966 0.0714 0.0000 -10792.8906 1441.3381 0.0000 0.0000 1762.5867 -7588.0976 301.1796 -9350.6843 -7486.4754 302.9157 -330.6678 -266.6246 30529.3495 -268.8551 -212.7121
ENERGY: 600000 0.0175 0.8020 0.0036 0.0000 -10753.0779 1456.2177 0.0000 0.0000 1757.6234 -7538.4137 300.3315 -9296.0371 -7493.8963 301.6594 43.6551 120.0928 30207.8972 -160.7771 -87.8189
ENERGY: 900000 0.0685 0.7447 0.0380 0.0000 -10749.2250 1510.1584 0.0000 0.0000 1794.1398 -7444.0755 306.5712 -9238.2153 -7483.4162 300.8520 646.2707 722.6828 30259.6752 -77.2151 -14.1251
ENERGY: 1200000 0.5019 0.4006 0.5795 0.0000 -10604.0316 1348.2427 0.0000 0.0000 1717.1154 -7537.1915 293.4098 -9254.3069 -7485.8363 300.0266 -714.5542 -695.2129 30271.3591 -137.2589 -79.7116
ENERGY: 1500000 0.0400 2.1766 0.0836 0.0000 -10619.5042 1361.4178 0.0000 0.0000 1769.6137 -7486.1724 302.3803 -9255.7861 -7483.6739 300.3412 -605.1864 -522.9276 30325.9684 -151.2518 -85.0744
TCL: Running FEP window  11: Lambda1 0.4999999999999996 Lambda2 0.4499999999999996 [dLambda -0.04999999999999999]
TCL: Setting parameter firsttimestep to 0
TCL: Setting parameter alchLambda to 0.4999999999999996
Info: NONBONDED TABLE R-SQUARED SPACING: 0.0625
Info: NONBONDED TABLE SIZE: 705 POINTS
TCL: Setting parameter alchLambda2 to 0.4499999999999996
Info: NONBONDED TABLE R-SQUARED SPACING: 0.0625
Info: NONBONDED TABLE SIZE: 705 POINTS
TCL: Running for 1500000 steps
ETITLE: TS BOND ANGLE DIHED IMPRP ELECT VDW BOUNDARY MISC KINETIC TOTAL TEMP POTENTIAL TOTALAVG TEMPAVG PRESSURE GPRESSURE VOLUME PRESSAVG GPRESSAVG
ENERGY: 0 0.0400 2.1766 0.0836 0.0000 -10618.7760 1361.2525 0.0000 0.0000 1768.6869 -7486.5363 302.2220 -9255.2232 -7486.5363 302.2220 -617.1427 -526.0948 30325.9684 -617.1427 -526.0948
ENERGY: 300000 0.5847 0.3086 0.0822 0.0000 -10640.8401 1407.2454 0.0000 0.0000 1720.9141 -7511.7051 294.0589 -9232.6193 -7504.9724 301.7647 -260.9658 -219.6413 30352.9181 -161.2599 -97.0521
ENERGY: 600000 0.0000 0.8190 0.0558 0.0000 -10656.3329 1492.6266 0.0000 0.0000 1779.4738 -7383.3575 304.0652 -9162.8314 -7508.3739 299.4651 537.5878 567.3650 30375.2004 -18.8189 38.8833
ENERGY: 900000 0.8897 0.5548 0.0696 0.0000 -10571.4666 1344.6562 0.0000 0.0000 1768.8200 -7456.4763 302.2447 -9225.2963 -7488.6794 300.9423 -643.1818 -524.4651 30261.4342 53.6609 119.3609
ENERGY: 1200000 0.0490 0.5924 0.0400 0.0000 -10584.6155 1360.5762 0.0000 0.0000 1764.1355 -7459.2224 301.4443 -9223.3579 -7502.1222 299.9006 -486.9990 -435.7198 30360.5750 -138.6953 -76.4162
ENERGY: 1500000 1.2344 0.5776 0.0068 0.0000 -10766.4194 1462.0330 0.0000 0.0000 1835.8019 -7466.7658 313.6902 -9302.5677 -7500.4098 300.8801 232.8648 285.3498 30061.3943 -125.5219 -72.1360
TCL: Running FEP window  12: Lambda1 0.4499999999999996 Lambda2 0.39999999999999963 [dLambda -0.04999999999999999]
TCL: Setting parameter firsttimestep to 0
TCL: Setting parameter alchLambda to 0.4499999999999996
Info: NONBONDED TABLE R-SQUARED SPACING: 0.0625
Info: NONBONDED TABLE SIZE: 705 POINTS
TCL: Setting parameter alchLambda2 to 0.39999999999999963
Info: NONBONDED TABLE R-SQUARED SPACING: 0.0625
Info: NONBONDED TABLE SIZE: 705 POINTS
TCL: Running for 1500000 steps
ETITLE: TS BOND ANGLE DIHED IMPRP ELECT VDW BOUNDARY MISC KINETIC TOTAL TEMP POTENTIAL TOTALAVG TEMPAVG PRESSURE GPRESSURE VOLUME PRESSAVG GPRESSAVG
ENERGY: 0 1.2344 0.5776 0.0068 0.0000 -10766.4198 1462.1345 0.0000 0.0000 1834.9150 -7467.5516 313.5386 -9302.4665 -7467.5516 313.5386 192.8122 286.3486 30061.3943 192.8122 286.3486
ENERGY: 300000 0.0000 0.1192 0.0585 0.0000 -10909.0009 1561.7547 0.0000 0.0000 1761.9967 -7585.0717 301.0788 -9347.0684 -7555.8704 301.0015 717.3839 765.8837 30033.7274 388.1709 460.8183
ENERGY: 600000 0.3413 0.7780 0.0178 0.0000 -10759.3393 1468.2623 0.0000 0.0000 1779.6214 -7510.3185 304.0904 -9289.9399 -7541.3403 301.1084 125.8397 220.1772 29986.6517 393.4793 474.6075
ENERGY: 900000 0.0024 1.2457 0.3057 0.0000 -10690.6994 1366.2276 0.0000 0.0000 1753.9222 -7568.9957 299.6991 -9322.9179 -7531.5197 301.6396 -894.6888 -857.1456 30418.9668 201.5355 283.2113
ENERGY: 1200000 0.0007 0.2124 0.2785 0.0000 -10868.1679 1531.0734 0.0000 0.0000 1810.1582 -7526.4447 309.3083 -9336.6028 -7526.4156 301.4225 855.8225 903.1196 29684.4965 222.5725 300.9985
ENERGY: 1500000 0.1619 0.7702 0.0015 0.0000 -10772.3827 1504.6603 0.0000 0.0000 1698.0815 -7568.7074 290.1574 -9266.7889 -7513.5002 301.3369 250.2428 342.0599 30699.6034 212.8557 288.5270
TCL: Running FEP window  13: Lambda1 0.39999999999999963 Lambda2 0.34999999999999964 [dLambda -0.04999999999999999]
TCL: Setting parameter firsttimestep to 0
TCL: Setting parameter alchLambda to 0.39999999999999963
Info: NONBONDED TABLE R-SQUARED SPACING: 0.0625
Info: NONBONDED TABLE SIZE: 705 POINTS
TCL: Setting parameter alchLambda2 to 0.34999999999999964
Info: NONBONDED TABLE R-SQUARED SPACING: 0.0625
Info: NONBONDED TABLE SIZE: 705 POINTS
TCL: Running for 1500000 steps
ETITLE: TS BOND ANGLE DIHED IMPRP ELECT VDW BOUNDARY MISC KINETIC TOTAL TEMP POTENTIAL TOTALAVG TEMPAVG PRESSURE GPRESSURE VOLUME PRESSAVG GPRESSAVG
ENERGY: 0 0.1619 0.7702 0.0015 0.0000 -10772.3836 1504.7136 0.0000 0.0000 1697.1795 -7569.5570 290.0032 -9266.7365 -7569.5570 290.0032 250.8148 338.0146 30699.6034 250.8148 338.0146
ENERGY: 300000 0.3511 0.7307 0.0087 0.0000 -10801.6998 1508.6366 0.0000 0.0000 1786.3952 -7505.5775 305.2479 -9291.9727 -7529.7577 297.4540 535.8906 641.7925 30010.6213 178.8382 221.2766
ENERGY: 600000 0.0711 0.0635 0.1886 0.0000 -10767.1885 1470.7957 0.0000 0.0000 1803.9095 -7492.1601 308.2406 -9296.0696 -7514.7520 299.1740 120.4914 175.5031 30194.4556 68.1778 114.6714
ENERGY: 900000 1.3793 1.0264 0.5651 0.0000 -10514.1823 1350.1386 0.0000 0.0000 1740.8445 -7420.2283 297.4645 -9161.0729 -7502.0055 299.2878 -763.1136 -690.8873 30780.2990 -36.5095 19.9764
ENERGY: 1200000 0.0031 0.7629 0.3214 0.0000 -10718.2421 1375.9272 0.0000 0.0000 1786.2257 -7555.0017 305.2189 -9341.2275 -7508.5932 299.1321 -715.4166 -670.4691 30313.4627 -124.4603 -73.7268
ENERGY: 1500000 0.1092 0.9753 0.0054 0.0000 -10660.2032 1355.2684 0.0000 0.0000 1703.4760 -7600.3689 291.0792 -9303.8449 -7509.3437 299.1774 -793.9294 -679.3271 29904.3142 -195.9606 -133.9220
TCL: Running FEP window  14: Lambda1 0.34999999999999964 Lambda2 0.29999999999999966 [dLambda -0.04999999999999999]
TCL: Setting parameter firsttimestep to 0
TCL: Setting parameter alchLambda to 0.34999999999999964
Info: NONBONDED TABLE R-SQUARED SPACING: 0.0625
Info: NONBONDED TABLE SIZE: 705 POINTS
TCL: Setting parameter alchLambda2 to 0.29999999999999966
Info: NONBONDED TABLE R-SQUARED SPACING: 0.0625
Info: NONBONDED TABLE SIZE: 705 POINTS
TCL: Running for 1500000 steps
ETITLE: TS BOND ANGLE DIHED IMPRP ELECT VDW BOUNDARY MISC KINETIC TOTAL TEMP POTENTIAL TOTALAVG TEMPAVG PRESSURE GPRESSURE VOLUME PRESSAVG GPRESSAVG
ENERGY: 0 0.1092 0.9753 0.0054 0.0000 -10660.2040 1355.1704 0.0000 0.0000 1702.5789 -7601.3647 290.9259 -9303.9436 -7601.3647 290.9259 -758.5824 -678.2801 29904.3142 -758.5824 -678.2801
ENERGY: 300000 0.1046 0.8022 0.0113 0.0000 -10550.7462 1324.7591 0.0000 0.0000 1762.5682 -7462.5008 301.1765 -9225.0691 -7524.1564 297.9061 -852.6899 -781.8631 30380.5108 -532.1920 -463.2354
ENERGY: 600000 0.4608 0.6611 0.5898 0.0000 -10694.3576 1446.7801 0.0000 0.0000 1795.0569 -7450.8089 306.7279 -9245.8658 -7501.2157 299.9817 66.7639 222.1959 30278.1261 -187.7780 -112.1366
ENERGY: 900000 0.0103 0.3263 0.0190 0.0000 -10697.3864 1413.6745 0.0000 0.0000 1749.1751 -7534.1811 298.8879 -9283.3563 -7513.1746 300.3662 -369.8588 -345.9428 30439.9322 -243.7652 -170.0081
ENERGY: 1200000 0.4143 0.6495 0.7971 0.0000 -10648.4199 1421.1319 0.0000 0.0000 1760.0498 -7465.3772 300.7461 -9225.4271 -7524.2891 300.0039 0.1393 43.9067 30314.1903 -166.4321 -106.9971
ENERGY: 1500000 0.0010 0.4647 0.3310 0.0000 -10647.6548 1375.8468 0.0000 0.0000 1709.9981 -7561.0133 292.1936 -9271.0113 -7508.2772 300.6604 -529.4988 -429.6618 30031.2300 -166.5297 -100.9697
TCL: Running FEP window  15: Lambda1 0.29999999999999966 Lambda2 0.24999999999999967 [dLambda -0.04999999999999999]
TCL: Setting parameter firsttimestep to 0
TCL: Setting parameter alchLambda to 0.29999999999999966
Info: NONBONDED TABLE R-SQUARED SPACING: 0.0625
Info: NONBONDED TABLE SIZE: 705 POINTS
TCL: Setting parameter alchLambda2 to 0.24999999999999967
Info: NONBONDED TABLE R-SQUARED SPACING: 0.0625
Info: NONBONDED TABLE SIZE: 705 POINTS
TCL: Running for 1500000 steps
ETITLE: TS BOND ANGLE DIHED IMPRP ELECT VDW BOUNDARY MISC KINETIC TOTAL TEMP POTENTIAL TOTALAVG TEMPAVG PRESSURE GPRESSURE VOLUME PRESSAVG GPRESSAVG
ENERGY: 0 0.0010 0.4647 0.3310 0.0000 -10647.6546 1375.3733 0.0000 0.0000 1709.0941 -7562.3905 292.0391 -9271.4846 -7562.3905 292.0391 -513.6184 -434.9692 30031.2300 -513.6184 -434.9692
ENERGY: 300000 0.3227 0.4557 0.7728 0.0000 -10684.2740 1389.3865 0.0000 0.0000 1760.7795 -7532.5567 300.8708 -9293.3362 -7545.9542 298.1485 -385.0666 -334.4522 29994.5817 -345.0299 -277.7250
ENERGY: 600000 0.2509 0.7542 0.2600 0.0000 -10583.6211 1380.6811 0.0000 0.0000 1749.7832 -7451.8917 298.9918 -9201.6749 -7534.6431 297.1458 -361.9262 -335.1431 30571.3927 -267.5388 -205.9217
ENERGY: 900000 0.0374 3.4421 0.1322 0.0000 -10922.1245 1552.0767 0.0000 0.0000 1712.5098 -7653.9264 292.6228 -9366.4361 -7553.3404 296.1216 772.3662 816.6253 29786.5394 -99.8384 -35.3961
ENERGY: 1200000 0.0773 0.1205 0.0265 0.0000 -10560.8514 1359.0660 0.0000 0.0000 1728.1378 -7473.4233 295.2932 -9201.5611 -7554.6693 295.4117 -681.0539 -660.6407 30631.8189 -108.3312 -43.4694
ENERGY: 1500000 0.0043 2.7347 0.0001 0.0000 -10803.5026 1465.2402 0.0000 0.0000 1753.5349 -7581.9883 299.6329 -9335.5232 -7551.8866 296.2455 71.7509 134.3101 30070.8358 -56.2196 11.4427
TCL: Running FEP window  16: Lambda1 0.24999999999999967 Lambda2 0.19999999999999968 [dLambda -0.04999999999999999]
TCL: Setting parameter firsttimestep to 0
TCL: Setting parameter alchLambda to 0.24999999999999967
Info: NONBONDED TABLE R-SQUARED SPACING: 0.0625
Info: NONBONDED TABLE SIZE: 705 POINTS
TCL: Setting parameter alchLambda2 to 0.19999999999999968
Info: NONBONDED TABLE R-SQUARED SPACING: 0.0625
Info: NONBONDED TABLE SIZE: 705 POINTS
TCL: Running for 1500000 steps
ETITLE: TS BOND ANGLE DIHED IMPRP ELECT VDW BOUNDARY MISC KINETIC TOTAL TEMP POTENTIAL TOTALAVG TEMPAVG PRESSURE GPRESSURE VOLUME PRESSAVG GPRESSAVG
ENERGY: 0 0.0043 2.7347 0.0001 0.0000 -10803.5034 1465.1629 0.0000 0.0000 1752.6831 -7582.9182 299.4874 -9335.6013 -7582.9182 299.4874 49.4139 133.2062 30070.8358 49.4139 133.2062
ENERGY: 300000 1.7024 0.9928 0.0528 0.0000 -10655.6107 1420.7983 0.0000 0.0000 1791.0075 -7441.0569 306.0360 -9232.0644 -7511.0434 300.0070 -218.3056 -133.7270 30548.4688 -23.0557 52.3818
ENERGY: 600000 0.1397 0.2615 0.8234 0.0000 -10636.7264 1428.6517 0.0000 0.0000 1779.6350 -7427.2151 304.0927 -9206.8501 -7484.9523 300.9354 80.4035 127.6163 30275.3370 4.7865 75.7600
ENERGY: 900000 0.2561 0.4031 0.3987 0.0000 -10701.7440 1428.6485 0.0000 0.0000 1753.2658 -7518.7718 299.5869 -9272.0376 -7490.3749 300.5970 -320.8996 -152.0050 30431.7004 -14.9357 60.3763
ENERGY: 1200000 0.0152 0.4486 0.0660 0.0000 -10673.1715 1431.6464 0.0000 0.0000 1796.6912 -7444.3042 307.0072 -9240.9954 -7494.9744 300.9785 42.3684 133.2459 30127.1014 -25.4464 55.3540
ENERGY: 1500000 0.1458 0.9717 0.0225 0.0000 -10732.5126 1505.5283 0.0000 0.0000 1730.1018 -7495.7425 295.6288 -9225.8443 -7507.2068 299.7637 711.3982 736.8892 30220.9254 15.3442 87.0252
TCL: Running FEP window  17: Lambda1 0.19999999999999968 Lambda2 0.1499999999999997 [dLambda -0.04999999999999999]
TCL: Setting parameter firsttimestep to 0
TCL: Setting parameter alchLambda to 0.19999999999999968
Info: NONBONDED TABLE R-SQUARED SPACING: 0.0625
Info: NONBONDED TABLE SIZE: 705 POINTS
TCL: Setting parameter alchLambda2 to 0.1499999999999997
Info: NONBONDED TABLE R-SQUARED SPACING: 0.0625
Info: NONBONDED TABLE SIZE: 705 POINTS
TCL: Running for 1500000 steps
ETITLE: TS BOND ANGLE DIHED IMPRP ELECT VDW BOUNDARY MISC KINETIC TOTAL TEMP POTENTIAL TOTALAVG TEMPAVG PRESSURE GPRESSURE VOLUME PRESSAVG GPRESSAVG
ENERGY: 0 0.1458 0.9717 0.0225 0.0000 -10732.5133 1505.5945 0.0000 0.0000 1729.2211 -7496.5577 295.4783 -9225.7787 -7496.5577 295.4783 652.2084 735.4007 30220.9254 652.2084 735.4007
ENERGY: 300000 0.7349 1.8708 0.0480 0.0000 -10619.3097 1384.7647 0.0000 0.0000 1755.2972 -7476.5942 299.9340 -9231.8914 -7494.3209 300.6082 -454.4334 -353.6158 30349.0965 -5.2068 70.8080
ENERGY: 600000 0.0989 0.2551 0.0691 0.0000 -10677.6727 1423.2725 0.0000 0.0000 1701.9339 -7552.0432 290.8156 -9253.9770 -7506.7660 298.3870 -171.1840 -62.6662 30333.8162 -114.6506 -30.5877
ENERGY: 900000 0.4738 0.2780 1.1010 0.0000 -10849.1080 1554.1818 0.0000 0.0000 1784.4322 -7508.6411 304.9124 -9293.0733 -7511.3272 299.7963 758.4131 788.4605 30192.1421 -69.8708 3.9254
ENERGY: 1200000 0.0181 0.9080 0.3525 0.0000 -10699.8916 1396.3522 0.0000 0.0000 1758.9008 -7543.3601 300.5498 -9302.2609 -7514.6384 299.1045 -309.4383 -261.6708 29931.4683 -159.5390 -86.4116
ENERGY: 1500000 0.0605 1.6193 0.3350 0.0000 -10733.8812 1427.2134 0.0000 0.0000 1731.8145 -7572.8386 295.9215 -9304.6531 -7514.3924 299.1284 -527.7229 -456.7382 30611.2451 -223.8143 -151.5190
TCL: Running FEP window  18: Lambda1 0.1499999999999997 Lambda2 0.09999999999999969 [dLambda -0.05 ]
TCL: Setting parameter firsttimestep to 0
TCL: Setting parameter alchLambda to 0.1499999999999997
Info: NONBONDED TABLE R-SQUARED SPACING: 0.0625
Info: NONBONDED TABLE SIZE: 705 POINTS
TCL: Setting parameter alchLambda2 to 0.09999999999999969
Info: NONBONDED TABLE R-SQUARED SPACING: 0.0625
Info: NONBONDED TABLE SIZE: 705 POINTS
TCL: Running for 1500000 steps
ETITLE: TS BOND ANGLE DIHED IMPRP ELECT VDW BOUNDARY MISC KINETIC TOTAL TEMP POTENTIAL TOTALAVG TEMPAVG PRESSURE GPRESSURE VOLUME PRESSAVG GPRESSAVG
ENERGY: 0 0.0605 1.6193 0.3350 0.0000 -10733.8787 1427.3604 0.0000 0.0000 1730.9304 -7573.5732 295.7704 -9304.5036 -7573.5732 295.7704 -546.1148 -456.5997 30611.2451 -546.1148 -456.5997
ENERGY: 300000 0.0464 0.2474 0.9515 0.0000 -10653.8596 1419.7257 0.0000 0.0000 1719.3113 -7513.5773 293.7850 -9232.8887 -7506.1104 299.3284 -220.4760 -183.9619 30513.6069 -236.2852 -195.3237
ENERGY: 600000 0.0177 1.0571 0.0003 0.0000 -10643.1278 1405.8451 0.0000 0.0000 1724.7609 -7511.4466 294.7162 -9236.2075 -7506.8581 299.5739 -324.4303 -256.3447 30454.4694 -111.7367 -71.6798
ENERGY: 900000 1.6148 0.1465 0.0422 0.0000 -10820.1027 1486.1982 0.0000 0.0000 1684.3726 -7647.7284 287.8149 -9332.1010 -7526.8738 298.0697 103.0699 145.7999 30052.6089 -100.4913 -55.0682
ENERGY: 1200000 0.0001 0.3367 0.1006 0.0000 -10727.1112 1413.2824 0.0000 0.0000 1747.9193 -7565.4720 298.6733 -9313.3913 -7524.4372 298.9520 -459.2079 -385.8124 30167.8815 -107.1322 -63.2828
ENERGY: 1500000 0.1947 1.1058 0.3044 0.0000 -10700.8887 1443.5292 0.0000 0.0000 1777.1922 -7478.5624 303.6753 -9255.7547 -7517.8708 299.3964 34.6821 53.1227 30382.1370 -94.1634 -46.2020
TCL: Running FEP window  19: Lambda1 0.09999999999999969 Lambda2 0.049999999999999684 [dLambda -0.05 ]
TCL: Setting parameter firsttimestep to 0
TCL: Setting parameter alchLambda to 0.09999999999999969
Info: NONBONDED TABLE R-SQUARED SPACING: 0.0625
Info: NONBONDED TABLE SIZE: 705 POINTS
TCL: Setting parameter alchLambda2 to 0.049999999999999684
Info: NONBONDED TABLE R-SQUARED SPACING: 0.0625
Info: NONBONDED TABLE SIZE: 705 POINTS
TCL: Running for 1500000 steps
ETITLE: TS BOND ANGLE DIHED IMPRP ELECT VDW BOUNDARY MISC KINETIC TOTAL TEMP POTENTIAL TOTALAVG TEMPAVG PRESSURE GPRESSURE VOLUME PRESSAVG GPRESSAVG
ENERGY: 0 0.1947 1.1058 0.3044 0.0000 -10700.8909 1443.6437 0.0000 0.0000 1776.3300 -7479.3123 303.5280 -9255.6423 -7479.3123 303.5280 -27.0054 50.8400 30382.1370 -27.0054 50.8400
ENERGY: 300000 1.2180 0.1010 1.1885 0.0000 -10720.2558 1455.3191 0.0000 0.0000 1771.8742 -7490.5549 302.7666 -9262.4292 -7486.3286 300.5403 182.8783 209.1873 30131.2595 -225.9227 -171.4796
ENERGY: 600000 0.0002 1.3756 0.0201 0.0000 -10673.1653 1432.0535 0.0000 0.0000 1712.8543 -7526.8615 292.6817 -9239.7158 -7499.3835 298.9500 160.7104 129.9627 30194.8203 -197.5564 -165.0806
ENERGY: 900000 1.1752 0.7934 0.3963 0.0000 -10760.8106 1468.5944 0.0000 0.0000 1749.7822 -7540.0693 298.9917 -9289.8514 -7508.9063 299.4241 298.0755 339.9224 29992.3785 -206.4239 -165.8440
ENERGY: 1200000 0.5906 1.0525 1.7116 0.0000 -10725.0765 1437.7679 0.0000 0.0000 1726.5401 -7557.4139 295.0202 -9283.9539 -7515.1006 299.3237 -72.4637 18.2733 29974.9504 -130.9389 -89.4139
ENERGY: 1500000 0.5938 0.1754 0.3579 0.0000 -10669.5359 1405.3489 0.0000 0.0000 1740.5758 -7522.4842 297.4185 -9263.0600 -7515.0313 299.2615 -377.7663 -323.4298 30430.5463 -80.3939 -32.0129
TCL: Running FEP window  20: Lambda1 0.049999999999999684 Lambda2 0.0    [dLambda -0.049999999999999684]
TCL: Setting parameter firsttimestep to 0
TCL: Setting parameter alchLambda to 0.049999999999999684
Info: NONBONDED TABLE R-SQUARED SPACING: 0.0625
Info: NONBONDED TABLE SIZE: 705 POINTS
TCL: Setting parameter alchLambda2 to 0.0
Info: NONBONDED TABLE R-SQUARED SPACING: 0.0625
Info: NONBONDED TABLE SIZE: 705 POINTS
TCL: Running for 1500000 steps
ETITLE: TS BOND ANGLE DIHED IMPRP ELECT VDW BOUNDARY MISC KINETIC TOTAL TEMP POTENTIAL TOTALAVG TEMPAVG PRESSURE GPRESSURE VOLUME PRESSAVG GPRESSAVG
ENERGY: 0 0.5938 0.1754 0.3579 0.0000 -10669.5349 1405.4214 0.0000 0.0000 1739.7123 -7523.2740 297.2710 -9262.9864 -7523.2740 297.2710 -381.7030 -325.5941 30430.5463 -381.7030 -325.5941
ENERGY: 300000 0.2371 0.3423 0.0116 0.0000 -10669.5404 1410.5539 0.0000 0.0000 1753.1752 -7505.2203 299.5714 -9258.3955 -7500.5343 299.6599 -270.4142 -191.1281 30217.6219 -38.9223 34.5715
ENERGY: 600000 0.1201 0.7537 0.5909 0.0000 -10947.5290 1522.6894 0.0000 0.0000 1787.7493 -7635.6257 305.4792 -9423.3749 -7525.9277 299.6955 344.6389 442.6997 29948.5061 49.5637 112.8984
ENERGY: 900000 0.1194 0.3911 0.0641 0.0000 -10753.2212 1463.1310 0.0000 0.0000 1776.4905 -7513.0252 303.5554 -9289.5156 -7525.5994 299.9487 99.4485 191.0561 30222.0566 -109.7461 -47.4813
ENERGY: 1200000 0.3001 0.1929 0.6973 0.0000 -10625.5229 1475.8234 0.0000 0.0000 1812.8289 -7335.6802 309.7647 -9148.5091 -7501.6259 301.9000 744.0103 789.3836 29952.9999 37.2706 98.8776
ENERGY: 1500000 0.4451 0.1414 0.0745 0.0000 -10541.8004 1354.6459 0.0000 0.0000 1843.2124 -7343.2810 314.9564 -9186.4934 -7496.9236 301.8953 -510.4057 -446.3728 30529.9282 -29.9484 42.2192
TCL: Exiting due to exit command.
