Info: SIMULATION PARAMETERS:
Info: TIMESTEP               2
Info: NUMBER OF STEPS        0
Info: STEPS PER CYCLE        10
Info: PERIODIC CELL BASIS 1  46.611 0 0
Info: PERIODIC CELL BASIS 2  0 42.118 0
Info: PERIODIC CELL BASIS 3  0 0 40.136
Info: PERIODIC CELL CENTER   0 0 0
Info: WRAPPING WATERS AROUND PERIODIC BOUNDARIES ON OUTPUT.
Info: WRAPPING ALL CLUSTERS AROUND PERIODIC BOUNDARIES ON OUTPUT.
Info: FIRST LDB TIMESTEP     50
Info: LAST LDB TIMESTEP     -1
Info: HOM BACKGROUND SCALING 1
Info: PME BACKGROUND SCALING 1
Info: MIN ATOMS PER PATCH    40
Info: EMPTY PATCH LOAD       40 ATOMS
Info: INITIAL TEMPERATURE    300
Info: CENTER OF MASS MOVING INITIALLY? NO
Info: DIELECTRIC             1
Info: EXCLUDE                SCALED ONE-FOUR
Info: 1-4 ELECTROSTATICS SCALED BY 0.833333
Info: MODIFIED 1-4 VDW PARAMETERS WILL BE USED
Info: DCD FILENAME           mobley_2269032_min.dcd
Info: DCD FREQUENCY          5000
Info: DCD FIRST STEP         5000
Info: DCD FILE WILL CONTAIN UNIT CELL DATA
Info: XST FILENAME           mobley_2269032_min.xst
Info: XST FREQUENCY          5000
Info: NO VELOCITY DCD OUTPUT
Info: NO FORCE DCD OUTPUT
Info: OUTPUT FILENAME        mobley_2269032_min
Info: BINARY OUTPUT FILES WILL BE USED
Info: RESTART FILENAME       mobley_2269032_min.restart
Info: RESTART FREQUENCY      5000
Info: BINARY RESTART FILES WILL BE USED
Info: CUTOFF                 9
Info: PAIRLIST DISTANCE      11
Info: PAIRLIST SHRINK RATE   0.01
Info: PAIRLIST GROW RATE     0.01
Info: PAIRLIST TRIGGER       0.3
Info: PAIRLISTS PER CYCLE    2
Info: PAIRLISTS ENABLED
Info: MARGIN                 8
Info: HYDROGEN GROUP CUTOFF  2.5
Info: PATCH DIMENSION        21.5
Info: ENERGY OUTPUT STEPS    5000
Info: ENERGY EVALUATION STEPS    5000
Info: OUTPUT ENERGY PRECISION 4
Info: CROSSTERM ENERGY INCLUDED IN DIHEDRAL
Info: TIMING OUTPUT STEPS    50000
Info: PRESSURE OUTPUT STEPS  5000
Info: LANGEVIN DYNAMICS ACTIVE
Info: LANGEVIN TEMPERATURE   300
Info: LANGEVIN USING BBK INTEGRATOR
Info: LANGEVIN DAMPING COEFFICIENT IS 1 INVERSE PS
Info: LANGEVIN DYNAMICS APPLIED TO HYDROGENS
Info: LANGEVIN PISTON PRESSURE CONTROL ACTIVE
Info:        TARGET PRESSURE IS 1.01325 BAR
Info:     OSCILLATION PERIOD IS 50 FS
Info:             DECAY TIME IS 25 FS
Info:     PISTON TEMPERATURE IS 300 K
Info:       PRESSURE CONTROL IS GROUP-BASED
Info:    INITIAL STRAIN RATE IS 0 0 0
Info:       CELL FLUCTUATION IS ISOTROPIC
Info: PARTICLE MESH EWALD (PME) ACTIVE
Info: PME TOLERANCE               1e-06
Info: PME EWALD COEFFICIENT       0.348832
Info: PME INTERPOLATION ORDER     4
Info: PME GRID DIMENSIONS         48 44 44
Info: PME MAXIMUM GRID SPACING    1
Info: FULL ELECTROSTATIC EVALUATION FREQUENCY      2
Info: USING VERLET I (r-RESPA) MTS SCHEME.
Info: C1 SPLITTING OF LONG RANGE ELECTROSTATICS
Info: PLACING ATOMS IN PATCHES BY HYDROGEN GROUPS
Info: RIGID BONDS TO HYDROGEN : ALL
Info:         ERROR TOLERANCE : 1e-08
Info:          MAX ITERATIONS : 100
Info: RIGID WATER USING SETTLE ALGORITHM
Info: RANDOM NUMBER SEED     1741355162
Info: USE HYDROGEN BONDS?    NO
Info: Using AMBER format force field!
Info: AMBER PARM FILE        mobley_2269032.prmtop
Info: COORDINATE PDB         mobley_2269032.pdb
Info: Exclusions will be read from PARM file!
Info: SCNB (VDW SCALING)     2
Info: USING ARITHMETIC MEAN TO COMBINE L-J SIGMA PARAMETERS
Info: SUMMARY OF PARAMETERS:
Info: 14 BONDS
Info: 18 ANGLES
Info:   18 HARMONIC
Info:   0 COSINE-BASED
Info: 18 DIHEDRAL
Info: 0 IMPROPER
Info: 0 CROSSTERM
Info: 0 VDW
Info: 66 VDW_PAIRS
Info: 0 NBTHOLE_PAIRS
Info: STRUCTURE SUMMARY:
Info: 5776 ATOMS
Info: 5777 BONDS
Info: 53 ANGLES
Info: 84 DIHEDRALS
Info: 0 IMPROPERS
Info: 0 CROSSTERMS
Info: 5896 EXCLUSIONS
Info: 5759 RIGID BONDS
Info: 11569 DEGREES OF FREEDOM
Info: 1932 HYDROGEN GROUPS
Info: 4 ATOMS IN LARGEST HYDROGEN GROUP
Info: 1932 MIGRATION GROUPS
Info: 4 ATOMS IN LARGEST MIGRATION GROUP
Info: TOTAL MASS = 34730.9 amu
Info: TOTAL CHARGE = -9.99449e-05 e
Info: MASS DENSITY = 0.731956 g/cm^3
Info: ATOM DENSITY = 0.0733056 atoms/A^3
Info: ADDED 0 IMPLICIT EXCLUSIONS
Info: NONBONDED TABLE R-SQUARED SPACING: 0.0625
Info: NONBONDED TABLE SIZE: 705 POINTS
Info: REMOVING COM VELOCITY 0.159941 -0.0563947 0.0768752
TCL: Minimizing for 2000 steps
ETITLE: TS BOND ANGLE DIHED IMPRP ELECT VDW BOUNDARY MISC KINETIC TOTAL TEMP POTENTIAL TOTAL3 TEMPAVG PRESSURE GPRESSURE VOLUME PRESSAVG GPRESSAVG
ENERGY: 0 0.3848 2.7586 5.3829 0.0000 -17905.0839 2018.2329 0.0000 0.0000 0.0000 -15878.3247 0.0000 -15878.3247 -15878.3247 0.0000 11181.2954 -15573.6822 78793.4740 11181.2954 -15573.6822
ENERGY: 400 4.0185 3.7314 5.0062 0.0000 -23988.0356 3511.6386 0.0000 0.0000 0.0000 -20463.6409 0.0000 -20463.6409 -20463.6409 0.0000 15897.3830 15978.5341 78793.4740 15897.3830 15978.5341
ENERGY: 800 6.1739 2.6516 5.2421 0.0000 -25333.7278 4063.4279 0.0000 0.0000 0.0000 -21256.2322 0.0000 -21256.2322 -21256.2322 0.0000 18016.4473 18058.6385 78793.4740 18016.4473 18058.6385
ENERGY: 1200 0.8944 2.4426 4.3245 0.0000 -25852.5260 4271.7046 0.0000 0.0000 0.0000 -21573.1599 0.0000 -21573.1599 -21573.1599 0.0000 18897.2597 18924.8995 78793.4740 18897.2597 18924.8995
ENERGY: 1600 9.6424 3.6077 4.2910 0.0000 -26178.4949 4432.3799 0.0000 0.0000 0.0000 -21728.5739 0.0000 -21728.5739 -21728.5739 0.0000 19583.8910 19632.3096 78793.4740 19583.8910 19632.3096
ENERGY: 2000 0.7295 1.7764 3.9080 0.0000 -26344.5478 4498.1307 0.0000 0.0000 0.0000 -21840.0032 0.0000 -21840.0032 -21840.0032 0.0000 19841.5670 19860.5844 78793.4740 19841.5670 19860.5844
TCL: Exiting due to exit command.
Info: NAMD 3.0.1 for Linux-x86_64-multicore
Info: Please visit http://www.ks.uiuc.edu/Research/namd/
Info: for updates, documentation, and support information.
Info: Please cite Phillips et al., J. Chem. Phys. 153:044130 (2020) doi:10.1063/5.0014475
Info: in all publications reporting results obtained with NAMD.
Info: Based on Charm++/Converse 80000 for multicore-linux-x86_64-gcc
Info: Built Mon Oct 14 11:11:06 CDT 2024 by dhardy on athine.ks.uiuc.edu
Info: 1 NAMD  3.0.1  Linux-x86_64-multicore  16    k006  z5358697
Info: Running on 16 processors, 1 nodes, 1 physical nodes.
Info: CPU topology information available.
Info: Charm++/Converse parallel runtime startup completed at 0.0116897 s
Info: 1043.45 MB of memory in use based on /proc/self/stat
Info: Configuration file is mobley_2269032_equil.namd
Info: Working in the current directory /srv/scratch/z5358697/prod_prep_2/2269032
TCL: Running 25000 steps at 30 kelvin.
TCL: Suspending until startup complete.
Info: SIMULATION PARAMETERS:
Info: TIMESTEP               2
Info: NUMBER OF STEPS        0
Info: STEPS PER CYCLE        10
Info: PERIODIC CELL BASIS 1  46.611 0 0
Info: PERIODIC CELL BASIS 2  0 42.118 0
Info: PERIODIC CELL BASIS 3  0 0 40.136
Info: PERIODIC CELL CENTER   0 0 0
Info: WRAPPING WATERS AROUND PERIODIC BOUNDARIES ON OUTPUT.
Info: WRAPPING ALL CLUSTERS AROUND PERIODIC BOUNDARIES ON OUTPUT.
Info: FIRST LDB TIMESTEP     50
Info: LAST LDB TIMESTEP     -1
Info: HOM BACKGROUND SCALING 1
Info: PME BACKGROUND SCALING 1
Info: MIN ATOMS PER PATCH    40
Info: EMPTY PATCH LOAD       40 ATOMS
Info: INITIAL TEMPERATURE    300
Info: CENTER OF MASS MOVING INITIALLY? NO
Info: DIELECTRIC             1
Info: EXCLUDE                SCALED ONE-FOUR
Info: 1-4 ELECTROSTATICS SCALED BY 0.833333
Info: MODIFIED 1-4 VDW PARAMETERS WILL BE USED
Info: DCD FILENAME           mobley_2269032_equil.dcd
Info: DCD FREQUENCY          5000
Info: DCD FIRST STEP         5000
Info: DCD FILE WILL CONTAIN UNIT CELL DATA
Info: XST FILENAME           mobley_2269032_equil.xst
Info: XST FREQUENCY          5000
Info: NO VELOCITY DCD OUTPUT
Info: NO FORCE DCD OUTPUT
Info: OUTPUT FILENAME        mobley_2269032_equil
Info: BINARY OUTPUT FILES WILL BE USED
Info: RESTART FILENAME       mobley_2269032_equil.restart
Info: RESTART FREQUENCY      5000
Info: BINARY RESTART FILES WILL BE USED
Info: CUTOFF                 9
Info: PAIRLIST DISTANCE      11
Info: PAIRLIST SHRINK RATE   0.01
Info: PAIRLIST GROW RATE     0.01
Info: PAIRLIST TRIGGER       0.3
Info: PAIRLISTS PER CYCLE    2
Info: PAIRLISTS ENABLED
Info: MARGIN                 8
Info: HYDROGEN GROUP CUTOFF  2.5
Info: PATCH DIMENSION        21.5
Info: ENERGY OUTPUT STEPS    5000
Info: ENERGY EVALUATION STEPS    5000
Info: OUTPUT ENERGY PRECISION 4
Info: CROSSTERM ENERGY INCLUDED IN DIHEDRAL
Info: TIMING OUTPUT STEPS    50000
Info: PRESSURE OUTPUT STEPS  5000
Info: LANGEVIN DYNAMICS ACTIVE
Info: LANGEVIN TEMPERATURE   30
Info: LANGEVIN USING BBK INTEGRATOR
Info: LANGEVIN DAMPING COEFFICIENT IS 1 INVERSE PS
Info: LANGEVIN DYNAMICS APPLIED TO HYDROGENS
Info: LANGEVIN PISTON PRESSURE CONTROL ACTIVE
Info:        TARGET PRESSURE IS 1.01325 BAR
Info:     OSCILLATION PERIOD IS 50 FS
Info:             DECAY TIME IS 25 FS
Info:     PISTON TEMPERATURE IS 300 K
Info:       PRESSURE CONTROL IS GROUP-BASED
Info:    INITIAL STRAIN RATE IS 0 0 0
Info:       CELL FLUCTUATION IS ISOTROPIC
Info: PARTICLE MESH EWALD (PME) ACTIVE
Info: PME TOLERANCE               1e-06
Info: PME EWALD COEFFICIENT       0.348832
Info: PME INTERPOLATION ORDER     4
Info: PME GRID DIMENSIONS         48 44 44
Info: PME MAXIMUM GRID SPACING    1
Info: FULL ELECTROSTATIC EVALUATION FREQUENCY      2
Info: USING VERLET I (r-RESPA) MTS SCHEME.
Info: C1 SPLITTING OF LONG RANGE ELECTROSTATICS
Info: PLACING ATOMS IN PATCHES BY HYDROGEN GROUPS
Info: RIGID BONDS TO HYDROGEN : ALL
Info:         ERROR TOLERANCE : 1e-08
Info:          MAX ITERATIONS : 100
Info: RIGID WATER USING SETTLE ALGORITHM
Info: RANDOM NUMBER SEED     1741355186
Info: USE HYDROGEN BONDS?    NO
Info: Using AMBER format force field!
Info: AMBER PARM FILE        mobley_2269032.prmtop
Info: COORDINATE PDB         mobley_2269032.pdb
Info: Exclusions will be read from PARM file!
Info: SCNB (VDW SCALING)     2
Info: USING ARITHMETIC MEAN TO COMBINE L-J SIGMA PARAMETERS
Info: BINARY COORDINATES     mobley_2269032_min.coor
Info: SUMMARY OF PARAMETERS:
Info: 14 BONDS
Info: 18 ANGLES
Info:   18 HARMONIC
Info:   0 COSINE-BASED
Info: 18 DIHEDRAL
Info: 0 IMPROPER
Info: 0 CROSSTERM
Info: 0 VDW
Info: 66 VDW_PAIRS
Info: 0 NBTHOLE_PAIRS
Info: STRUCTURE SUMMARY:
Info: 5776 ATOMS
Info: 5777 BONDS
Info: 53 ANGLES
Info: 84 DIHEDRALS
Info: 0 IMPROPERS
Info: 0 CROSSTERMS
Info: 5896 EXCLUSIONS
Info: 5759 RIGID BONDS
Info: 11569 DEGREES OF FREEDOM
Info: 1932 HYDROGEN GROUPS
Info: 4 ATOMS IN LARGEST HYDROGEN GROUP
Info: 1932 MIGRATION GROUPS
Info: 4 ATOMS IN LARGEST MIGRATION GROUP
Info: TOTAL MASS = 34730.9 amu
Info: TOTAL CHARGE = -9.99449e-05 e
Info: MASS DENSITY = 0.731956 g/cm^3
Info: ATOM DENSITY = 0.0733056 atoms/A^3
Info: ADDED 0 IMPLICIT EXCLUSIONS
Info: NONBONDED TABLE R-SQUARED SPACING: 0.0625
Info: NONBONDED TABLE SIZE: 705 POINTS
Info: REMOVING COM VELOCITY 0.0536091 -0.0276474 -0.145167
TCL: Running for 25000 steps
ETITLE: TS BOND ANGLE DIHED IMPRP ELECT VDW BOUNDARY MISC KINETIC TOTAL TEMP POTENTIAL TOTAL3 TEMPAVG PRESSURE GPRESSURE VOLUME PRESSAVG GPRESSAVG
ENERGY: 0 0.7295 1.7764 3.9080 0.0000 -26344.5478 4498.1307 0.0000 0.0000 3474.4266 -18365.5766 302.2579 -21840.0032 -18364.8823 302.2579 -86.8241 -32.2872 78793.4740 -86.8241 -32.2872
ENERGY: 5000 0.9768 3.9780 3.3250 0.0000 -27488.9976 4584.6947 0.0000 0.0000 346.0047 -22550.0184 30.1007 -22896.0231 -22549.1043 48.0333 -986.0640 -913.9848 56836.9456 -0.9529 -0.8996
ENERGY: 10000 1.8544 3.0053 3.6531 0.0000 -27762.6666 4836.3604 0.0000 0.0000 344.2761 -22573.5173 29.9503 -22917.7934 -22572.4248 30.0345 79.7984 146.3163 56359.1375 0.5670 0.4963
ENERGY: 15000 1.7745 2.2434 3.3517 0.0000 -27480.8902 4554.2929 0.0000 0.0000 341.7447 -22577.4832 29.7301 -22919.2279 -22576.4340 29.7837 -1183.8657 -1119.5298 56865.1319 3.5601 3.7795
ENERGY: 20000 0.6790 3.1076 3.4671 0.0000 -27909.1282 4959.3313 0.0000 0.0000 350.2907 -22592.2526 30.4736 -22942.5432 -22591.1594 30.2367 593.2309 665.4558 56202.4106 1.1903 0.9918
ENERGY: 25000 0.9521 2.4375 3.6165 0.0000 -27782.7047 4827.4689 0.0000 0.0000 347.9712 -22600.2585 30.2718 -22948.2298 -22599.3614 30.2428 7.0015 67.7976 56342.5386 2.5101 2.3778
TCL: Running 25000 steps at 60 kelvin.
TCL: Setting parameter langevinTemp to 60
TCL: Running for 25000 steps
ETITLE: TS BOND ANGLE DIHED IMPRP ELECT VDW BOUNDARY MISC KINETIC TOTAL TEMP POTENTIAL TOTAL3 TEMPAVG PRESSURE GPRESSURE VOLUME PRESSAVG GPRESSAVG
ENERGY: 25000 0.9521 2.4375 3.6165 0.0000 -27782.7047 4827.4689 0.0000 0.0000 347.7987 -22600.4310 30.2568 -22948.2298 -22599.6664 30.2568 11.7560 67.7757 56342.5386 11.7560 67.7757
ENERGY: 30000 1.5232 3.7397 4.8308 0.0000 -27635.2487 4947.5382 0.0000 0.0000 695.5312 -21982.0855 60.5078 -22677.6167 -21980.2842 57.2383 1191.7083 1249.8291 55963.0326 0.7050 0.7834
ENERGY: 35000 1.1062 3.3989 4.3227 0.0000 -27514.9144 4780.4155 0.0000 0.0000 702.9470 -22022.7240 61.1529 -22725.6710 -22021.9986 60.3912 293.5780 339.7522 56127.9018 7.5498 7.6489
ENERGY: 40000 0.8271 3.1798 4.0068 0.0000 -27638.2551 4852.4128 0.0000 0.0000 688.2763 -22089.5522 59.8766 -22777.8286 -22087.9434 60.3897 612.0365 682.6463 55823.5096 7.0957 6.8550
ENERGY: 45000 2.1453 5.0764 4.1232 0.0000 -27291.6861 4498.2274 0.0000 0.0000 675.8396 -22106.2743 58.7947 -22782.1139 -22104.4343 60.1952 -990.2413 -935.4026 56201.3523 0.6907 0.5010
ENERGY: 50000 1.5844 3.3020 4.1758 0.0000 -27472.7630 4670.7361 0.0000 0.0000 695.4368 -22097.5280 60.4996 -22792.9647 -22095.1135 60.5238 -214.7379 -171.2652 55875.0465 2.9588 2.8660
TCL: Running 25000 steps at 90 kelvin.
TCL: Setting parameter langevinTemp to 90
TCL: Running for 25000 steps
ETITLE: TS BOND ANGLE DIHED IMPRP ELECT VDW BOUNDARY MISC KINETIC TOTAL TEMP POTENTIAL TOTAL3 TEMPAVG PRESSURE GPRESSURE VOLUME PRESSAVG GPRESSAVG
ENERGY: 50000 1.5844 3.3020 4.1758 0.0000 -27472.7630 4670.7361 0.0000 0.0000 695.0937 -22097.8710 60.4697 -22792.9647 -22096.3397 60.4697 -225.7224 -171.1031 55875.0465 -225.7224 -171.1031
ENERGY: 55000 1.8822 4.4536 4.2817 0.0000 -26988.7715 4549.0884 0.0000 0.0000 997.0653 -21432.0002 86.7398 -22429.0656 -21429.1430 86.6294 -105.6539 -42.9441 56333.6707 5.2265 5.6575
ENERGY: 60000 1.3526 4.1438 6.9144 0.0000 -27209.2913 4717.7997 0.0000 0.0000 1036.0547 -21443.0261 90.1316 -22479.0809 -21441.0282 90.2044 709.2323 763.2552 55651.0318 1.5783 1.8959
ENERGY: 65000 1.5875 4.1170 6.6990 0.0000 -27154.2770 4633.5156 0.0000 0.0000 1044.5261 -21463.8318 90.8686 -22508.3579 -21460.8626 90.1404 232.9509 310.4189 55818.1495 2.9748 2.4692
ENERGY: 70000 1.6653 4.4789 6.3257 0.0000 -27162.6873 4607.0959 0.0000 0.0000 1028.2061 -21514.9154 89.4488 -22543.1214 -21511.9519 89.8284 91.0312 168.0429 55647.9409 0.9286 0.7139
ENERGY: 75000 1.1698 5.1598 5.2618 0.0000 -27156.1499 4583.4399 0.0000 0.0000 1057.3388 -21503.7799 91.9832 -22561.1186 -21501.1683 90.5199 53.8829 69.0758 55652.4935 7.1057 7.2982
TCL: Running 25000 steps at 120 kelvin.
TCL: Setting parameter langevinTemp to 120
TCL: Running for 25000 steps
ETITLE: TS BOND ANGLE DIHED IMPRP ELECT VDW BOUNDARY MISC KINETIC TOTAL TEMP POTENTIAL TOTAL3 TEMPAVG PRESSURE GPRESSURE VOLUME PRESSAVG GPRESSAVG
ENERGY: 75000 1.1698 5.1598 5.2618 0.0000 -27156.1499 4583.4399 0.0000 0.0000 1056.8145 -21504.3041 91.9376 -22561.1186 -21502.0741 91.9376 16.0558 68.9391 55652.4935 16.0558 68.9391
ENERGY: 80000 1.6411 5.4985 6.6912 0.0000 -26591.7348 4408.3032 0.0000 0.0000 1374.7597 -20794.8412 119.5973 -22169.6009 -20790.5345 115.7437 -49.9354 -7.7455 55980.2195 3.0883 2.8935
ENERGY: 85000 1.2953 5.1032 5.0299 0.0000 -26624.6922 4362.9946 0.0000 0.0000 1372.7039 -20877.5654 119.4184 -22250.2692 -20874.6138 119.7775 -438.0815 -384.8848 56155.8472 7.7453 7.3734
ENERGY: 90000 5.7948 3.8234 5.5226 0.0000 -26651.5555 4390.0892 0.0000 0.0000 1391.3704 -20854.9551 121.0423 -22246.3255 -20850.7958 120.0736 -301.7932 -261.1026 56038.2043 2.4684 2.4349
ENERGY: 95000 2.1392 5.6030 4.8565 0.0000 -26666.7372 4401.9235 0.0000 0.0000 1399.5273 -20852.6877 121.7520 -22252.2150 -20848.1296 119.8250 -367.1137 -299.5177 56267.1699 0.3723 0.4399
ENERGY: 100000 1.9006 4.4830 8.5266 0.0000 -26927.1060 4583.1060 0.0000 0.0000 1397.9991 -20931.0907 121.6190 -22329.0898 -20926.9054 120.5563 248.2768 301.1300 55976.7130 5.6648 5.8403
TCL: Running 25000 steps at 150 kelvin.
TCL: Setting parameter langevinTemp to 150
TCL: Running for 25000 steps
ETITLE: TS BOND ANGLE DIHED IMPRP ELECT VDW BOUNDARY MISC KINETIC TOTAL TEMP POTENTIAL TOTAL3 TEMPAVG PRESSURE GPRESSURE VOLUME PRESSAVG GPRESSAVG
ENERGY: 100000 1.9006 4.4830 8.5266 0.0000 -26927.1060 4583.1060 0.0000 0.0000 1397.2976 -20931.7921 121.5580 -22329.0898 -20929.1254 121.5580 245.5030 301.8199 55976.7130 245.5030 301.8199
ENERGY: 105000 3.0951 5.1192 7.0496 0.0000 -26284.4233 4379.5475 0.0000 0.0000 1730.2028 -20159.4091 150.5191 -21889.6119 -20154.2346 146.9253 225.3563 287.9302 56474.7839 0.3353 0.1095
ENERGY: 110000 2.5982 7.8062 6.2841 0.0000 -26126.5139 4203.4644 0.0000 0.0000 1694.3192 -20212.0417 147.3974 -21906.3608 -20208.9916 149.7559 -634.0267 -560.3359 56515.6596 7.9372 7.7143
ENERGY: 115000 2.7444 9.2644 6.7594 0.0000 -26116.9359 4130.2303 0.0000 0.0000 1711.8525 -20256.0849 148.9227 -21967.9373 -20251.3690 149.7116 -897.8451 -795.0288 56212.3833 4.5690 4.2985
ENERGY: 120000 1.9916 4.2657 6.5207 0.0000 -26534.7620 4518.1436 0.0000 0.0000 1724.4339 -20279.4065 150.0172 -22003.8404 -20276.0092 149.7090 860.8018 879.0171 55808.7439 2.8444 2.6589
ENERGY: 125000 1.8031 4.3344 6.4373 0.0000 -26368.8166 4371.9768 0.0000 0.0000 1732.7156 -20251.5493 150.7377 -21984.2649 -20247.7462 150.6187 125.2502 183.0543 56195.3915 5.7008 5.7267
TCL: Running 50000 steps at 180 kelvin.
TCL: Setting parameter langevinTemp to 180
TCL: Running for 50000 steps
ETITLE: TS BOND ANGLE DIHED IMPRP ELECT VDW BOUNDARY MISC KINETIC TOTAL TEMP POTENTIAL TOTAL3 TEMPAVG PRESSURE GPRESSURE VOLUME PRESSAVG GPRESSAVG
ENERGY: 125000 1.8031 4.3344 6.4373 0.0000 -26368.8166 4371.9768 0.0000 0.0000 1731.8724 -20252.3925 150.6643 -21984.2649 -20249.2714 150.6643 134.0537 182.2086 56195.3915 134.0537 182.2086
ENERGY: 135000 4.1460 6.0550 5.6818 0.0000 -25472.0937 3948.3479 0.0000 0.0000 2031.9619 -19475.9012 176.7706 -21507.8631 -19469.7864 178.9629 -881.8169 -808.2208 56621.3055 1.2225 1.7216
ENERGY: 145000 1.9511 6.4783 6.0985 0.0000 -25621.5012 4128.2610 0.0000 0.0000 2082.9949 -19395.7174 181.2103 -21478.7123 -19392.7537 179.2431 164.9511 260.9057 56047.3019 2.4823 2.6120
ENERGY: 155000 4.3759 3.7375 8.0572 0.0000 -25489.4837 4011.7542 0.0000 0.0000 2091.4456 -19370.1132 181.9454 -21461.5589 -19364.0582 180.5168 -483.1879 -441.7095 56297.7248 5.0398 4.5685
ENERGY: 165000 6.2960 10.0104 6.1778 0.0000 -25628.5032 4089.9177 0.0000 0.0000 2122.7402 -19393.3612 184.6679 -21516.1014 -19387.9723 179.6630 -246.2029 -185.2777 56256.0784 1.5682 1.5535
ENERGY: 175000 3.4739 7.6423 8.6034 0.0000 -25620.5533 4167.0938 0.0000 0.0000 2053.1287 -19380.6113 178.6120 -21433.7399 -19376.4088 180.3823 356.1417 388.1971 55941.9925 4.1202 4.3493
TCL: Running 50000 steps at 210 kelvin.
TCL: Setting parameter langevinTemp to 210
TCL: Running for 50000 steps
ETITLE: TS BOND ANGLE DIHED IMPRP ELECT VDW BOUNDARY MISC KINETIC TOTAL TEMP POTENTIAL TOTAL3 TEMPAVG PRESSURE GPRESSURE VOLUME PRESSAVG GPRESSAVG
ENERGY: 175000 3.4739 7.6423 8.6034 0.0000 -25620.5533 4167.0938 0.0000 0.0000 2052.1147 -19381.6252 178.5238 -21433.7399 -19378.1599 178.5238 326.5496 387.2827 55941.9925 326.5496 387.2827
ENERGY: 185000 5.2381 11.8257 8.9997 0.0000 -24296.6375 3659.4170 0.0000 0.0000 2413.8346 -18197.3225 209.9917 -20611.1571 -18191.1770 209.3738 -332.6759 -250.3595 56346.7010 -1.0459 -0.9719
ENERGY: 195000 5.6582 6.4963 6.0715 0.0000 -24237.1279 3617.4622 0.0000 0.0000 2404.4000 -18197.0396 209.1709 -20601.4396 -18191.0898 210.1566 -445.3832 -391.1965 56307.4188 -3.0166 -3.4549
ENERGY: 205000 6.0359 11.1439 6.7342 0.0000 -24227.0757 3702.1826 0.0000 0.0000 2426.3362 -18074.6429 211.0793 -20500.9791 -18068.8452 210.4344 135.8348 237.8434 56243.1434 3.5216 2.6916
ENERGY: 215000 7.4616 7.9781 8.9539 0.0000 -24402.6871 3777.4679 0.0000 0.0000 2441.0135 -18159.8121 212.3561 -20600.8257 -18154.6480 210.1836 138.9031 230.0253 56323.2387 -1.2690 -1.0760
ENERGY: 225000 5.2031 7.5066 10.1128 0.0000 -24360.6456 3743.0730 0.0000 0.0000 2449.9463 -18144.8039 213.1332 -20594.7501 -18139.2777 210.8116 90.3115 186.3028 56269.6762 1.2778 0.9972
TCL: Running 50000 steps at 240 kelvin.
TCL: Setting parameter langevinTemp to 240
TCL: Running for 50000 steps
ETITLE: TS BOND ANGLE DIHED IMPRP ELECT VDW BOUNDARY MISC KINETIC TOTAL TEMP POTENTIAL TOTAL3 TEMPAVG PRESSURE GPRESSURE VOLUME PRESSAVG GPRESSAVG
ENERGY: 225000 5.2031 7.5066 10.1128 0.0000 -24360.6456 3743.0730 0.0000 0.0000 2448.7293 -18146.0208 213.0273 -20594.7501 -18141.8560 213.0273 111.3028 186.4693 56269.6762 111.3028 186.4693
ENERGY: 235000 8.7688 8.5036 6.8880 0.0000 -23107.2681 3402.9226 0.0000 0.0000 2756.9647 -16923.2205 239.8423 -19680.1852 -16919.9113 239.1297 332.3229 374.7915 56724.2051 4.4774 4.4668
ENERGY: 245000 6.2943 11.7297 8.4620 0.0000 -23032.7439 3291.0694 0.0000 0.0000 2725.8110 -16989.3776 237.1321 -19715.1885 -16984.8811 238.6508 -494.3391 -403.2480 57619.3284 2.6022 2.1865
ENERGY: 255000 5.8770 9.9108 7.8513 0.0000 -23150.2444 3451.7282 0.0000 0.0000 2796.5519 -16878.3252 243.2862 -19674.8770 -16871.3498 240.3516 621.6700 683.5854 56416.4456 -0.0220 -0.5226
ENERGY: 265000 3.6849 10.0183 6.2857 0.0000 -23113.8325 3336.1576 0.0000 0.0000 2764.8833 -16992.8026 240.5312 -19757.6859 -16986.9563 239.5438 -160.4589 -98.6573 57268.2113 8.4154 8.7354
ENERGY: 275000 4.3768 7.8810 7.3802 0.0000 -23019.3829 3385.7873 0.0000 0.0000 2789.4405 -16824.5171 242.6675 -19613.9576 -16817.2704 241.2758 272.6075 307.2533 57296.2666 2.4364 2.0860
TCL: Running 50000 steps at 270 kelvin.
TCL: Setting parameter langevinTemp to 270
TCL: Running for 50000 steps
ETITLE: TS BOND ANGLE DIHED IMPRP ELECT VDW BOUNDARY MISC KINETIC TOTAL TEMP POTENTIAL TOTAL3 TEMPAVG PRESSURE GPRESSURE VOLUME PRESSAVG GPRESSAVG
ENERGY: 275000 4.3768 7.8810 7.3802 0.0000 -23019.3829 3385.7873 0.0000 0.0000 2788.0790 -16825.8787 242.5491 -19613.9576 -16821.5718 242.5491 227.3381 307.8633 57296.2666 227.3381 307.8633
ENERGY: 285000 6.3836 11.6712 12.9702 0.0000 -21996.0160 3073.7560 0.0000 0.0000 3141.6988 -15749.5363 273.3123 -18891.2351 -15745.9536 270.5493 -134.4506 -101.1339 58566.0501 0.2753 0.3787
ENERGY: 295000 8.2030 8.7962 6.6400 0.0000 -21897.4966 3016.8596 0.0000 0.0000 3066.6977 -15790.3000 266.7875 -18856.9976 -15785.9239 269.8642 5.9441 100.6745 57560.8600 5.5861 5.9507
ENERGY: 305000 4.9923 9.1646 7.8903 0.0000 -22134.1093 3066.9698 0.0000 0.0000 3120.9559 -15924.1365 271.5077 -19045.0924 -15917.8220 267.9488 -85.2681 -29.0294 57472.8928 5.4576 5.1866
ENERGY: 315000 3.4009 6.8435 12.4456 0.0000 -21822.4851 3026.6573 0.0000 0.0000 3091.0378 -15682.1000 268.9050 -18773.1378 -15676.9430 271.2712 -219.2751 -132.3581 58579.9404 3.8234 4.0001
ENERGY: 325000 5.4500 10.7963 7.6170 0.0000 -22062.8418 3006.8369 0.0000 0.0000 3099.4338 -15932.7078 269.6354 -19032.1416 -15924.1887 269.2962 -393.5870 -333.6969 58105.2398 5.7174 6.1138
TCL: Running 1000000 steps at 300 kelvin.
TCL: Setting parameter langevinTemp to 300
TCL: Running for 1000000 steps
ETITLE: TS BOND ANGLE DIHED IMPRP ELECT VDW BOUNDARY MISC KINETIC TOTAL TEMP POTENTIAL TOTAL3 TEMPAVG PRESSURE GPRESSURE VOLUME PRESSAVG GPRESSAVG
ENERGY: 325000 5.4500 10.7963 7.6170 0.0000 -22062.8418 3006.8369 0.0000 0.0000 3097.8820 -15934.2596 269.5004 -19032.1416 -15928.6550 269.5004 -406.1824 -332.9270 58105.2398 -406.1824 -332.9270
ENERGY: 525000 6.5871 13.8673 7.3519 0.0000 -20823.4716 2673.8761 0.0000 0.0000 3409.6491 -14712.1402 296.6226 -18121.7893 -14704.4940 300.9813 -451.9960 -408.9786 59417.2878 3.6011 4.4927
ENERGY: 725000 6.4012 10.3572 9.9495 0.0000 -20912.3044 2801.3155 0.0000 0.0000 3385.8287 -14698.4523 294.5503 -18084.2810 -14691.2294 299.1240 24.9476 92.5147 59012.2180 0.2724 0.3507
ENERGY: 925000 8.4959 12.4606 10.7491 0.0000 -20869.0431 2741.4499 0.0000 0.0000 3475.8429 -14620.0447 302.3811 -18095.8876 -14613.3167 301.6207 -426.0235 -349.4979 60116.3711 4.5409 4.1567
ENERGY: 1125000 10.6589 10.5199 9.9364 0.0000 -21036.2522 2788.3603 0.0000 0.0000 3473.9795 -14742.7971 302.2190 -18216.7766 -14735.5692 300.4059 -336.2567 -261.2497 59204.7250 3.8161 4.2574
ENERGY: 1325000 7.6501 10.1163 8.5714 0.0000 -21098.5280 2738.7467 0.0000 0.0000 3491.6709 -14841.7725 303.7581 -18333.4434 -14834.4643 298.0644 -633.9081 -547.1742 59767.5325 3.2754 3.5120
TCL: Exiting due to exit command.
