Info: SIMULATION PARAMETERS:
Info: TIMESTEP               2
Info: NUMBER OF STEPS        0
Info: STEPS PER CYCLE        10
Info: PERIODIC CELL BASIS 1  39.806 0 0
Info: PERIODIC CELL BASIS 2  0 39.303 0
Info: PERIODIC CELL BASIS 3  0 0 43.191
Info: PERIODIC CELL CENTER   0 0 0
Info: WRAPPING WATERS AROUND PERIODIC BOUNDARIES ON OUTPUT.
Info: WRAPPING ALL CLUSTERS AROUND PERIODIC BOUNDARIES ON OUTPUT.
Info: FIRST LDB TIMESTEP     50
Info: LAST LDB TIMESTEP     -1
Info: HOM BACKGROUND SCALING 1
Info: PME BACKGROUND SCALING 1
Info: MIN ATOMS PER PATCH    40
Info: EMPTY PATCH LOAD       40 ATOMS
Info: INITIAL TEMPERATURE    300
Info: CENTER OF MASS MOVING INITIALLY? NO
Info: DIELECTRIC             1
Info: EXCLUDE                SCALED ONE-FOUR
Info: 1-4 ELECTROSTATICS SCALED BY 0.833333
Info: MODIFIED 1-4 VDW PARAMETERS WILL BE USED
Info: DCD FILENAME           mobley_7497999_min.dcd
Info: DCD FREQUENCY          5000
Info: DCD FIRST STEP         5000
Info: DCD FILE WILL CONTAIN UNIT CELL DATA
Info: XST FILENAME           mobley_7497999_min.xst
Info: XST FREQUENCY          5000
Info: NO VELOCITY DCD OUTPUT
Info: NO FORCE DCD OUTPUT
Info: OUTPUT FILENAME        mobley_7497999_min
Info: BINARY OUTPUT FILES WILL BE USED
Info: RESTART FILENAME       mobley_7497999_min.restart
Info: RESTART FREQUENCY      5000
Info: BINARY RESTART FILES WILL BE USED
Info: CUTOFF                 9
Info: PAIRLIST DISTANCE      11
Info: PAIRLIST SHRINK RATE   0.01
Info: PAIRLIST GROW RATE     0.01
Info: PAIRLIST TRIGGER       0.3
Info: PAIRLISTS PER CYCLE    2
Info: PAIRLISTS ENABLED
Info: MARGIN                 8
Info: HYDROGEN GROUP CUTOFF  2.5
Info: PATCH DIMENSION        21.5
Info: ENERGY OUTPUT STEPS    5000
Info: ENERGY EVALUATION STEPS    5000
Info: OUTPUT ENERGY PRECISION 4
Info: CROSSTERM ENERGY INCLUDED IN DIHEDRAL
Info: TIMING OUTPUT STEPS    50000
Info: PRESSURE OUTPUT STEPS  5000
Info: LANGEVIN DYNAMICS ACTIVE
Info: LANGEVIN TEMPERATURE   300
Info: LANGEVIN USING BBK INTEGRATOR
Info: LANGEVIN DAMPING COEFFICIENT IS 1 INVERSE PS
Info: LANGEVIN DYNAMICS APPLIED TO HYDROGENS
Info: LANGEVIN PISTON PRESSURE CONTROL ACTIVE
Info:        TARGET PRESSURE IS 1.01325 BAR
Info:     OSCILLATION PERIOD IS 50 FS
Info:             DECAY TIME IS 25 FS
Info:     PISTON TEMPERATURE IS 300 K
Info:       PRESSURE CONTROL IS GROUP-BASED
Info:    INITIAL STRAIN RATE IS 0 0 0
Info:       CELL FLUCTUATION IS ISOTROPIC
Info: PARTICLE MESH EWALD (PME) ACTIVE
Info: PME TOLERANCE               1e-06
Info: PME EWALD COEFFICIENT       0.348832
Info: PME INTERPOLATION ORDER     4
Info: PME GRID DIMENSIONS         40 40 44
Info: PME MAXIMUM GRID SPACING    1
Info: FULL ELECTROSTATIC EVALUATION FREQUENCY      2
Info: USING VERLET I (r-RESPA) MTS SCHEME.
Info: C1 SPLITTING OF LONG RANGE ELECTROSTATICS
Info: PLACING ATOMS IN PATCHES BY HYDROGEN GROUPS
Info: RIGID BONDS TO HYDROGEN : ALL
Info:         ERROR TOLERANCE : 1e-08
Info:          MAX ITERATIONS : 100
Info: RIGID WATER USING SETTLE ALGORITHM
Info: RANDOM NUMBER SEED     1741392439
Info: USE HYDROGEN BONDS?    NO
Info: Using AMBER format force field!
Info: AMBER PARM FILE        mobley_7497999.prmtop
Info: COORDINATE PDB         mobley_7497999.pdb
Info: Exclusions will be read from PARM file!
Info: SCNB (VDW SCALING)     2
Info: USING ARITHMETIC MEAN TO COMBINE L-J SIGMA PARAMETERS
Info: SUMMARY OF PARAMETERS:
Info: 8 BONDS
Info: 8 ANGLES
Info: 8 DIHEDRAL
Info: 0 IMPROPER
Info: 0 CROSSTERM
Info: 0 VDW
Info: 28 VDW_PAIRS
Info: 0 NBTHOLE_PAIRS
Info: STRUCTURE SUMMARY:
Info: 4865 ATOMS
Info: 4865 BONDS
Info: 27 ANGLES
Info: 43 DIHEDRALS
Info: 0 IMPROPERS
Info: 0 CROSSTERMS
Info: 4923 EXCLUSIONS
Info: 4856 RIGID BONDS
Info: 9739 DEGREES OF FREEDOM
Info: 1625 HYDROGEN GROUPS
Info: 4 ATOMS IN LARGEST HYDROGEN GROUP
Info: 1625 MIGRATION GROUPS
Info: 4 ATOMS IN LARGEST MIGRATION GROUP
Info: TOTAL MASS = 29234 amu
Info: TOTAL CHARGE = 9.99868e-05 e
Info: MASS DENSITY = 0.718423 g/cm^3
Info: ATOM DENSITY = 0.0719972 atoms/A^3
Info: ADDED 0 IMPLICIT EXCLUSIONS
Info: NONBONDED TABLE R-SQUARED SPACING: 0.0625
Info: NONBONDED TABLE SIZE: 705 POINTS
Info: REMOVING COM VELOCITY -0.222979 0.061748 0.000684834
TCL: Minimizing for 2000 steps
ETITLE: TS BOND ANGLE DIHED IMPRP ELECT VDW BOUNDARY MISC KINETIC TOTAL TEMP POTENTIAL TOTAL3 TEMPAVG PRESSURE GPRESSURE VOLUME PRESSAVG GPRESSAVG
ENERGY: 0 0.6121 1.7728 24.7002 0.0000 -15190.7594 1752.9475 0.0000 0.0000 0.0000 -13410.7268 0.0000 -13410.7268 -13410.7268 0.0000 11242.8402 -15386.4365 67572.1130 11242.8402 -15386.4365
ENERGY: 400 41.2405 20.6689 24.2851 0.0000 -20238.9937 2886.2026 0.0000 0.0000 0.0000 -17266.5967 0.0000 -17266.5967 -17266.5967 0.0000 15298.5362 9726.0413 67572.1130 15298.5362 9726.0413
ENERGY: 800 7.0807 5.3883 21.9798 0.0000 -21563.9000 3567.2793 0.0000 0.0000 0.0000 -17962.1719 0.0000 -17962.1719 -17962.1719 0.0000 18506.9967 12271.2375 67572.1130 18506.9967 12271.2375
ENERGY: 1200 0.5987 1.5908 21.6547 0.0000 -21980.4055 3730.3957 0.0000 0.0000 0.0000 -18226.1657 0.0000 -18226.1657 -18226.1657 0.0000 19321.6757 12985.4962 67572.1130 19321.6757 12985.4962
ENERGY: 1600 19.0456 6.0848 22.2898 0.0000 -22153.4828 3801.9024 0.0000 0.0000 0.0000 -18304.1601 0.0000 -18304.1601 -18304.1601 0.0000 19619.0418 13377.7684 67572.1130 19619.0418 13377.7684
ENERGY: 2000 0.8611 1.2652 21.6966 0.0000 -22294.0735 3852.2976 0.0000 0.0000 0.0000 -18417.9531 0.0000 -18417.9531 -18417.9531 0.0000 19972.0367 13584.3989 67572.1130 19972.0367 13584.3989
TCL: Exiting due to exit command.
Info: NAMD 3.0.1 for Linux-x86_64-multicore
Info: Please visit http://www.ks.uiuc.edu/Research/namd/
Info: for updates, documentation, and support information.
Info: Please cite Phillips et al., J. Chem. Phys. 153:044130 (2020) doi:10.1063/5.0014475
Info: in all publications reporting results obtained with NAMD.
Info: Based on Charm++/Converse 80000 for multicore-linux-x86_64-gcc
Info: Built Mon Oct 14 11:11:06 CDT 2024 by dhardy on athine.ks.uiuc.edu
Info: 1 NAMD  3.0.1  Linux-x86_64-multicore  16    k061  z5358697
Info: Running on 16 processors, 1 nodes, 1 physical nodes.
Info: CPU topology information available.
Info: Charm++/Converse parallel runtime startup completed at 0.00941806 s
Info: 1043.46 MB of memory in use based on /proc/self/stat
Info: Configuration file is mobley_7497999_equil.namd
Info: Working in the current directory /srv/scratch/z5358697/prod_prep_9/7497999
TCL: Running 25000 steps at 30 kelvin.
TCL: Suspending until startup complete.
Info: SIMULATION PARAMETERS:
Info: TIMESTEP               2
Info: NUMBER OF STEPS        0
Info: STEPS PER CYCLE        10
Info: PERIODIC CELL BASIS 1  39.806 0 0
Info: PERIODIC CELL BASIS 2  0 39.303 0
Info: PERIODIC CELL BASIS 3  0 0 43.191
Info: PERIODIC CELL CENTER   0 0 0
Info: WRAPPING WATERS AROUND PERIODIC BOUNDARIES ON OUTPUT.
Info: WRAPPING ALL CLUSTERS AROUND PERIODIC BOUNDARIES ON OUTPUT.
Info: FIRST LDB TIMESTEP     50
Info: LAST LDB TIMESTEP     -1
Info: HOM BACKGROUND SCALING 1
Info: PME BACKGROUND SCALING 1
Info: MIN ATOMS PER PATCH    40
Info: EMPTY PATCH LOAD       40 ATOMS
Info: INITIAL TEMPERATURE    300
Info: CENTER OF MASS MOVING INITIALLY? NO
Info: DIELECTRIC             1
Info: EXCLUDE                SCALED ONE-FOUR
Info: 1-4 ELECTROSTATICS SCALED BY 0.833333
Info: MODIFIED 1-4 VDW PARAMETERS WILL BE USED
Info: DCD FILENAME           mobley_7497999_equil.dcd
Info: DCD FREQUENCY          5000
Info: DCD FIRST STEP         5000
Info: DCD FILE WILL CONTAIN UNIT CELL DATA
Info: XST FILENAME           mobley_7497999_equil.xst
Info: XST FREQUENCY          5000
Info: NO VELOCITY DCD OUTPUT
Info: NO FORCE DCD OUTPUT
Info: OUTPUT FILENAME        mobley_7497999_equil
Info: BINARY OUTPUT FILES WILL BE USED
Info: RESTART FILENAME       mobley_7497999_equil.restart
Info: RESTART FREQUENCY      5000
Info: BINARY RESTART FILES WILL BE USED
Info: CUTOFF                 9
Info: PAIRLIST DISTANCE      11
Info: PAIRLIST SHRINK RATE   0.01
Info: PAIRLIST GROW RATE     0.01
Info: PAIRLIST TRIGGER       0.3
Info: PAIRLISTS PER CYCLE    2
Info: PAIRLISTS ENABLED
Info: MARGIN                 8
Info: HYDROGEN GROUP CUTOFF  2.5
Info: PATCH DIMENSION        21.5
Info: ENERGY OUTPUT STEPS    5000
Info: ENERGY EVALUATION STEPS    5000
Info: OUTPUT ENERGY PRECISION 4
Info: CROSSTERM ENERGY INCLUDED IN DIHEDRAL
Info: TIMING OUTPUT STEPS    50000
Info: PRESSURE OUTPUT STEPS  5000
Info: LANGEVIN DYNAMICS ACTIVE
Info: LANGEVIN TEMPERATURE   30
Info: LANGEVIN USING BBK INTEGRATOR
Info: LANGEVIN DAMPING COEFFICIENT IS 1 INVERSE PS
Info: LANGEVIN DYNAMICS APPLIED TO HYDROGENS
Info: LANGEVIN PISTON PRESSURE CONTROL ACTIVE
Info:        TARGET PRESSURE IS 1.01325 BAR
Info:     OSCILLATION PERIOD IS 50 FS
Info:             DECAY TIME IS 25 FS
Info:     PISTON TEMPERATURE IS 300 K
Info:       PRESSURE CONTROL IS GROUP-BASED
Info:    INITIAL STRAIN RATE IS 0 0 0
Info:       CELL FLUCTUATION IS ISOTROPIC
Info: PARTICLE MESH EWALD (PME) ACTIVE
Info: PME TOLERANCE               1e-06
Info: PME EWALD COEFFICIENT       0.348832
Info: PME INTERPOLATION ORDER     4
Info: PME GRID DIMENSIONS         40 40 44
Info: PME MAXIMUM GRID SPACING    1
Info: FULL ELECTROSTATIC EVALUATION FREQUENCY      2
Info: USING VERLET I (r-RESPA) MTS SCHEME.
Info: C1 SPLITTING OF LONG RANGE ELECTROSTATICS
Info: PLACING ATOMS IN PATCHES BY HYDROGEN GROUPS
Info: RIGID BONDS TO HYDROGEN : ALL
Info:         ERROR TOLERANCE : 1e-08
Info:          MAX ITERATIONS : 100
Info: RIGID WATER USING SETTLE ALGORITHM
Info: RANDOM NUMBER SEED     1741392452
Info: USE HYDROGEN BONDS?    NO
Info: Using AMBER format force field!
Info: AMBER PARM FILE        mobley_7497999.prmtop
Info: COORDINATE PDB         mobley_7497999.pdb
Info: Exclusions will be read from PARM file!
Info: SCNB (VDW SCALING)     2
Info: USING ARITHMETIC MEAN TO COMBINE L-J SIGMA PARAMETERS
Info: BINARY COORDINATES     mobley_7497999_min.coor
Info: SUMMARY OF PARAMETERS:
Info: 8 BONDS
Info: 8 ANGLES
Info:   8 HARMONIC
Info:   0 COSINE-BASED
Info: 8 DIHEDRAL
Info: 0 IMPROPER
Info: 0 CROSSTERM
Info: 0 VDW
Info: 28 VDW_PAIRS
Info: 0 NBTHOLE_PAIRS
Info: STRUCTURE SUMMARY:
Info: 4865 ATOMS
Info: 4865 BONDS
Info: 27 ANGLES
Info: 43 DIHEDRALS
Info: 0 IMPROPERS
Info: 0 CROSSTERMS
Info: 4923 EXCLUSIONS
Info: 4856 RIGID BONDS
Info: 9739 DEGREES OF FREEDOM
Info: 1625 HYDROGEN GROUPS
Info: 4 ATOMS IN LARGEST HYDROGEN GROUP
Info: 1625 MIGRATION GROUPS
Info: 4 ATOMS IN LARGEST MIGRATION GROUP
Info: TOTAL MASS = 29234 amu
Info: TOTAL CHARGE = 9.99868e-05 e
Info: MASS DENSITY = 0.718423 g/cm^3
Info: ATOM DENSITY = 0.0719972 atoms/A^3
Info: ADDED 0 IMPLICIT EXCLUSIONS
Info: NONBONDED TABLE R-SQUARED SPACING: 0.0625
Info: NONBONDED TABLE SIZE: 705 POINTS
Info: REMOVING COM VELOCITY 0.00202473 0.0586118 -0.0096774
TCL: Running for 25000 steps
ETITLE: TS BOND ANGLE DIHED IMPRP ELECT VDW BOUNDARY MISC KINETIC TOTAL TEMP POTENTIAL TOTAL3 TEMPAVG PRESSURE GPRESSURE VOLUME PRESSAVG GPRESSAVG
ENERGY: 0 0.8611 1.2652 21.6966 0.0000 -22294.0735 3852.2976 0.0000 0.0000 2957.1080 -15460.8451 305.5929 -18417.9531 -15460.2047 305.5929 263.2677 298.1773 67572.1130 263.2677 298.1773
ENERGY: 5000 0.6497 1.8540 22.7478 0.0000 -23375.8819 4065.7296 0.0000 0.0000 291.7500 -18993.1507 30.1500 -19284.9008 -18992.2165 48.2958 136.1618 180.5653 47157.2055 -0.4798 -0.5186
ENERGY: 10000 0.5435 1.3884 22.7491 0.0000 -23490.6086 4151.3504 0.0000 0.0000 292.9309 -19021.6462 30.2720 -19314.5772 -19021.0510 30.1890 530.6007 579.8291 47023.2791 0.5807 0.7997
ENERGY: 15000 0.7039 2.0552 22.8421 0.0000 -23207.1032 3863.2271 0.0000 0.0000 290.8783 -19027.3966 30.0599 -19318.2749 -19026.5611 29.9579 -1026.9880 -976.5713 47573.1554 4.0471 4.0491
ENERGY: 20000 0.7134 1.8604 22.0892 0.0000 -23427.1411 4090.2479 0.0000 0.0000 294.8989 -19017.3313 30.4754 -19312.2302 -19016.7023 30.0964 151.1512 199.3541 47239.9174 5.2546 5.4129
ENERGY: 25000 0.3706 1.6193 24.3561 0.0000 -23296.3417 3949.0042 0.0000 0.0000 285.8766 -19035.1149 29.5430 -19320.9915 -19034.2675 30.1754 -585.9455 -527.3983 47310.1909 3.6445 3.6279
TCL: Running 25000 steps at 60 kelvin.
TCL: Setting parameter langevinTemp to 60
TCL: Running for 25000 steps
ETITLE: TS BOND ANGLE DIHED IMPRP ELECT VDW BOUNDARY MISC KINETIC TOTAL TEMP POTENTIAL TOTAL3 TEMPAVG PRESSURE GPRESSURE VOLUME PRESSAVG GPRESSAVG
ENERGY: 25000 0.3706 1.6193 24.3561 0.0000 -23296.3417 3949.0042 0.0000 0.0000 285.7305 -19035.2610 29.5279 -19320.9915 -19034.6035 29.5279 -577.5584 -527.3114 47310.1909 -577.5584 -527.3114
ENERGY: 30000 1.0079 1.8316 22.8717 0.0000 -23031.6082 3949.0702 0.0000 0.0000 590.1621 -18466.6648 60.9884 -19056.8269 -18465.0531 56.9086 75.1842 112.0606 47239.6818 1.5690 1.6608
ENERGY: 35000 1.9948 2.2057 22.5765 0.0000 -23027.5095 3901.7560 0.0000 0.0000 592.5979 -18506.3787 61.2401 -19098.9766 -18505.0181 60.4153 -219.6235 -152.9441 47039.4196 2.1324 2.4668
ENERGY: 40000 0.6857 1.1965 22.6800 0.0000 -23081.2122 3916.9066 0.0000 0.0000 584.1760 -18555.5673 60.3698 -19139.7434 -18554.5739 60.0874 -231.2349 -146.1986 46991.9919 3.0678 3.3755
ENERGY: 45000 0.6540 2.1763 22.5356 0.0000 -23164.7653 3960.4415 0.0000 0.0000 573.8595 -18605.0984 59.3037 -19178.9579 -18603.7084 60.6485 -63.9171 31.3356 46879.6185 1.4718 1.3454
ENERGY: 50000 1.9526 2.6117 22.8109 0.0000 -22886.7251 3681.7347 0.0000 0.0000 577.5711 -18600.0441 59.6872 -19177.6153 -18598.6214 59.9286 -1631.8167 -1569.5561 47343.3597 -1.0377 -1.1024
TCL: Running 25000 steps at 90 kelvin.
TCL: Setting parameter langevinTemp to 90
TCL: Running for 25000 steps
ETITLE: TS BOND ANGLE DIHED IMPRP ELECT VDW BOUNDARY MISC KINETIC TOTAL TEMP POTENTIAL TOTAL3 TEMPAVG PRESSURE GPRESSURE VOLUME PRESSAVG GPRESSAVG
ENERGY: 50000 1.9526 2.6117 22.8109 0.0000 -22886.7251 3681.7347 0.0000 0.0000 577.2724 -18600.3429 59.6564 -19177.6153 -18599.0823 59.6564 -1627.7772 -1569.9592 47343.3597 -1627.7772 -1569.9592
ENERGY: 55000 2.1768 2.1981 22.9926 0.0000 -22664.0177 3736.9092 0.0000 0.0000 852.9209 -18046.8201 88.1424 -18899.7410 -18043.8606 87.3228 -718.2092 -653.2873 47491.9252 3.9425 4.1840
ENERGY: 60000 0.9299 2.5607 24.6366 0.0000 -22830.6931 3843.5262 0.0000 0.0000 884.2731 -18074.7666 91.3824 -18959.0397 -18071.6280 91.0124 -278.9785 -181.2935 47108.6162 -4.1571 -4.1171
ENERGY: 65000 1.1087 2.0570 23.0132 0.0000 -23032.9878 4001.6726 0.0000 0.0000 858.1083 -18147.0280 88.6785 -19005.1363 -18143.9203 90.4085 535.1191 584.3460 46917.5720 7.6295 7.5375
ENERGY: 70000 0.9553 2.4997 22.4040 0.0000 -22968.5399 3901.8761 0.0000 0.0000 882.1251 -18158.6796 91.1604 -19040.8047 -18156.3880 90.3325 -46.8138 -40.6761 47045.1530 5.8813 5.7045
ENERGY: 75000 0.9455 3.3333 22.5825 0.0000 -23182.5271 4110.1751 0.0000 0.0000 876.0680 -18169.4228 90.5344 -19045.4907 -18167.9255 89.8763 972.3138 1017.8237 46834.9725 -3.8965 -4.0535
TCL: Running 25000 steps at 120 kelvin.
TCL: Setting parameter langevinTemp to 120
TCL: Running for 25000 steps
ETITLE: TS BOND ANGLE DIHED IMPRP ELECT VDW BOUNDARY MISC KINETIC TOTAL TEMP POTENTIAL TOTAL3 TEMPAVG PRESSURE GPRESSURE VOLUME PRESSAVG GPRESSAVG
ENERGY: 75000 0.9455 3.3333 22.5825 0.0000 -23182.5271 4110.1751 0.0000 0.0000 875.6154 -18169.8754 90.4877 -19045.4907 -18168.1544 90.4877 962.8435 1017.3648 46834.9725 962.8435 1017.3648
ENERGY: 80000 1.2343 2.4939 23.5409 0.0000 -22441.5315 3727.5600 0.0000 0.0000 1178.5581 -17508.1443 121.7943 -18686.7024 -17505.1202 117.2900 -265.2922 -167.1705 47382.3820 0.6071 0.5481
ENERGY: 85000 1.0623 3.1594 23.7645 0.0000 -22596.5342 3831.4376 0.0000 0.0000 1163.3060 -17573.8044 120.2181 -18737.1103 -17571.8723 120.2594 226.8199 268.4270 47354.5407 4.0982 4.1970
ENERGY: 90000 1.5162 3.0535 24.2306 0.0000 -22768.6058 3960.3069 0.0000 0.0000 1131.2889 -17648.2096 116.9094 -18779.4985 -17644.9601 120.2331 745.0589 801.0672 47247.2157 3.2546 3.2779
ENERGY: 95000 0.9799 3.0126 24.2510 0.0000 -22728.8175 3921.3508 0.0000 0.0000 1150.4977 -17628.7253 118.8945 -18779.2231 -17625.8844 120.2313 510.9804 574.7952 47255.7078 7.9828 7.9051
ENERGY: 100000 1.0108 4.1799 22.8347 0.0000 -22566.6332 3728.0221 0.0000 0.0000 1179.2940 -17631.2917 121.8704 -18810.5858 -17628.9061 120.8990 -544.9560 -498.9035 47711.8862 -0.4260 -0.2363
TCL: Running 25000 steps at 150 kelvin.
TCL: Setting parameter langevinTemp to 150
TCL: Running for 25000 steps
ETITLE: TS BOND ANGLE DIHED IMPRP ELECT VDW BOUNDARY MISC KINETIC TOTAL TEMP POTENTIAL TOTAL3 TEMPAVG PRESSURE GPRESSURE VOLUME PRESSAVG GPRESSAVG
ENERGY: 100000 1.0108 4.1799 22.8347 0.0000 -22566.6332 3728.0221 0.0000 0.0000 1178.7301 -17631.8557 121.8121 -18810.5858 -17629.8579 121.8121 -559.8710 -498.8622 47711.8862 -559.8710 -498.8622
ENERGY: 105000 0.4418 3.1433 24.1386 0.0000 -21971.8400 3502.9601 0.0000 0.0000 1451.9227 -16989.2335 150.0443 -18441.1562 -16983.7933 146.7995 -820.6882 -790.4083 48056.4657 4.1606 3.8973
ENERGY: 110000 1.4394 3.9067 24.6280 0.0000 -22204.8557 3707.6544 0.0000 0.0000 1411.4327 -17055.7945 145.8600 -18467.2272 -17052.7840 150.7430 358.8939 389.3675 47305.5032 3.6943 2.8340
ENERGY: 115000 4.0191 4.1351 24.8154 0.0000 -22105.2336 3616.3962 0.0000 0.0000 1391.2889 -17064.5790 143.7783 -18455.8679 -17062.6040 148.7556 -290.5159 -239.7225 47523.8546 2.3200 2.3843
ENERGY: 120000 3.1464 4.3473 23.8059 0.0000 -22129.5154 3627.1819 0.0000 0.0000 1450.7296 -17020.3043 149.9210 -18471.0339 -17017.1630 149.6393 -189.1765 -157.4303 47401.6400 0.5946 0.3397
ENERGY: 125000 2.1002 4.6988 24.4429 0.0000 -22205.0330 3640.5679 0.0000 0.0000 1467.1427 -17066.0805 151.6172 -18533.2231 -17062.3019 149.0829 -292.8888 -211.9448 47545.6471 7.2937 6.8071
TCL: Running 50000 steps at 180 kelvin.
TCL: Setting parameter langevinTemp to 180
TCL: Running for 50000 steps
ETITLE: TS BOND ANGLE DIHED IMPRP ELECT VDW BOUNDARY MISC KINETIC TOTAL TEMP POTENTIAL TOTAL3 TEMPAVG PRESSURE GPRESSURE VOLUME PRESSAVG GPRESSAVG
ENERGY: 125000 2.1002 4.6988 24.4429 0.0000 -22205.0330 3640.5679 0.0000 0.0000 1466.4129 -17066.8103 151.5417 -18533.2231 -17063.6842 151.5417 -278.2718 -212.3287 47545.6471 -278.2718 -212.3287
ENERGY: 135000 2.5915 4.2329 22.7692 0.0000 -21410.3572 3377.9944 0.0000 0.0000 1736.1483 -16266.6208 179.4167 -18002.7692 -16263.5644 180.1097 -533.7091 -500.3002 47985.8869 7.1634 6.9725
ENERGY: 145000 0.7206 4.0135 25.7060 0.0000 -21487.3944 3462.3248 0.0000 0.0000 1747.9485 -16246.6810 180.6361 -17994.6295 -16242.6669 180.8044 66.3033 107.5005 47558.1953 3.9633 3.9381
ENERGY: 155000 3.4005 2.3627 25.0688 0.0000 -21556.0677 3451.0261 0.0000 0.0000 1712.2315 -16361.9781 176.9451 -18074.2096 -16357.0045 178.8106 -310.5340 -216.7877 47694.3106 -0.5635 -0.6759
ENERGY: 165000 0.9208 4.3935 26.9395 0.0000 -21564.3121 3485.8613 0.0000 0.0000 1716.5556 -16329.6413 177.3919 -18046.1970 -16325.4898 179.5373 162.1564 244.4673 47297.1046 1.8165 1.3759
ENERGY: 175000 1.1581 2.5479 23.0860 0.0000 -21583.6810 3464.2592 0.0000 0.0000 1724.5595 -16368.0703 178.2191 -18092.6297 -16365.2161 179.3000 -88.9270 -19.6131 47385.5929 3.4106 3.4498
TCL: Running 50000 steps at 210 kelvin.
TCL: Setting parameter langevinTemp to 210
TCL: Running for 50000 steps
ETITLE: TS BOND ANGLE DIHED IMPRP ELECT VDW BOUNDARY MISC KINETIC TOTAL TEMP POTENTIAL TOTAL3 TEMPAVG PRESSURE GPRESSURE VOLUME PRESSAVG GPRESSAVG
ENERGY: 175000 1.1581 2.5479 23.0860 0.0000 -21583.6810 3464.2592 0.0000 0.0000 1723.7054 -16368.9243 178.1308 -18092.6297 -16365.6495 178.1308 -95.6108 -20.4659 47385.5929 -95.6108 -20.4659
ENERGY: 185000 3.3027 4.1462 24.5181 0.0000 -20668.3772 3214.3567 0.0000 0.0000 2062.3838 -15359.6697 213.1305 -17422.0535 -15353.8813 209.4643 113.3044 192.2970 47439.1779 1.0117 0.1978
ENERGY: 195000 2.7206 5.9098 27.7336 0.0000 -20326.9771 2972.4492 0.0000 0.0000 2031.9546 -15286.2094 209.9858 -17318.1639 -15282.5955 209.3833 -846.2506 -729.2310 47420.4268 -0.2641 -0.2346
ENERGY: 205000 3.0624 7.0434 25.8800 0.0000 -20522.5722 3121.7991 0.0000 0.0000 2049.1377 -15315.6496 211.7616 -17364.7873 -15312.7408 207.8788 -218.7772 -86.9932 47413.5442 -2.4710 -2.2874
ENERGY: 215000 2.4156 2.7212 24.4797 0.0000 -20554.3058 3193.4138 0.0000 0.0000 2078.2037 -15253.0718 214.7653 -17331.2755 -15247.6581 211.6603 219.8160 289.5922 47620.0463 -0.2426 0.3355
ENERGY: 225000 1.7914 5.9530 25.9278 0.0000 -20559.6217 3170.7065 0.0000 0.0000 2030.1211 -15325.1220 209.7964 -17355.2430 -15320.8724 210.7864 165.5736 229.2712 47478.1792 5.9162 6.0010
TCL: Running 50000 steps at 240 kelvin.
TCL: Setting parameter langevinTemp to 240
TCL: Running for 50000 steps
ETITLE: TS BOND ANGLE DIHED IMPRP ELECT VDW BOUNDARY MISC KINETIC TOTAL TEMP POTENTIAL TOTAL3 TEMPAVG PRESSURE GPRESSURE VOLUME PRESSAVG GPRESSAVG
ENERGY: 225000 1.7914 5.9530 25.9278 0.0000 -20559.6217 3170.7065 0.0000 0.0000 2029.0913 -15326.1517 209.6899 -17355.2430 -15322.4006 209.6899 154.6981 228.4473 47478.1792 154.6981 228.4473
ENERGY: 235000 2.9238 5.3059 23.7480 0.0000 -19496.4795 2795.8434 0.0000 0.0000 2406.9601 -14261.6983 248.7396 -16668.6584 -14257.8689 241.4940 -284.6701 -195.4079 47957.3172 2.8163 2.7038
ENERGY: 245000 1.2406 3.3592 27.5551 0.0000 -19630.0497 2925.3053 0.0000 0.0000 2328.5955 -14343.9940 240.6412 -16672.5895 -14338.6751 240.5567 250.8857 321.4226 47885.1044 5.3183 5.1096
ENERGY: 255000 1.4317 5.1186 24.5839 0.0000 -19487.9484 2832.8394 0.0000 0.0000 2375.4095 -14248.5654 245.4791 -16623.9749 -14246.0117 239.9045 115.4746 211.9116 47591.3446 4.3615 4.6843
ENERGY: 265000 2.9149 5.5976 22.9506 0.0000 -19489.0703 2879.6677 0.0000 0.0000 2331.2038 -14246.7357 240.9108 -16577.9395 -14242.6414 239.6501 256.5174 364.6290 47982.3595 1.2319 1.3426
ENERGY: 275000 0.9951 7.6737 22.8548 0.0000 -19673.3420 2951.9219 0.0000 0.0000 2270.7676 -14419.1289 234.6652 -16689.8965 -14413.6719 240.6304 381.2802 468.6919 47666.3271 -2.8183 -2.3239
TCL: Running 50000 steps at 270 kelvin.
TCL: Setting parameter langevinTemp to 270
TCL: Running for 50000 steps
ETITLE: TS BOND ANGLE DIHED IMPRP ELECT VDW BOUNDARY MISC KINETIC TOTAL TEMP POTENTIAL TOTAL3 TEMPAVG PRESSURE GPRESSURE VOLUME PRESSAVG GPRESSAVG
ENERGY: 275000 0.9951 7.6737 22.8548 0.0000 -19673.3420 2951.9219 0.0000 0.0000 2269.5801 -14420.3164 234.5425 -16689.8966 -14416.4290 234.5425 369.9279 469.5322 47666.3271 369.9279 469.5322
ENERGY: 285000 7.3489 3.9205 24.6715 0.0000 -18508.3785 2544.7920 0.0000 0.0000 2635.5533 -13292.0923 272.3628 -15927.6456 -13287.2627 273.1096 -493.5336 -373.9771 48967.6771 4.0257 3.9588
ENERGY: 295000 3.3388 4.0995 26.7278 0.0000 -18540.0625 2633.0364 0.0000 0.0000 2549.0559 -13323.8040 263.4240 -15872.8600 -13317.2898 271.3212 271.0470 350.2374 48602.7358 3.0129 3.2563
ENERGY: 305000 5.6339 7.5203 23.9929 0.0000 -18500.2988 2573.6742 0.0000 0.0000 2573.5370 -13315.9404 265.9539 -15889.4774 -13312.3218 271.0948 -39.7956 35.7932 48892.0990 4.8757 4.6295
ENERGY: 315000 5.1304 2.9945 23.2675 0.0000 -18889.1313 2747.5702 0.0000 0.0000 2556.5359 -13553.6329 264.1970 -16110.1687 -13548.4737 268.9620 280.6358 384.2251 48869.6089 -1.4773 -0.8375
ENERGY: 325000 1.6082 4.3262 25.5402 0.0000 -18333.7234 2465.3214 0.0000 0.0000 2669.0792 -13167.8482 275.8274 -15836.9274 -13164.0354 271.2234 -406.4158 -306.4012 48678.8819 4.0562 4.0815
TCL: Running 1000000 steps at 300 kelvin.
TCL: Setting parameter langevinTemp to 300
TCL: Running for 1000000 steps
ETITLE: TS BOND ANGLE DIHED IMPRP ELECT VDW BOUNDARY MISC KINETIC TOTAL TEMP POTENTIAL TOTAL3 TEMPAVG PRESSURE GPRESSURE VOLUME PRESSAVG GPRESSAVG
ENERGY: 325000 1.6082 4.3262 25.5402 0.0000 -18333.7234 2465.3214 0.0000 0.0000 2667.7599 -13169.1675 275.6911 -15836.9274 -13164.6895 275.6911 -396.5107 -305.8259 48678.8819 -396.5107 -305.8259
ENERGY: 525000 1.8695 8.1743 26.6157 0.0000 -17703.8669 2355.5261 0.0000 0.0000 2861.1736 -12450.5077 295.6788 -15311.6813 -12443.5958 299.5031 -220.0617 -138.3049 50175.2977 7.8469 7.6451
ENERGY: 725000 3.9021 4.3352 29.1445 0.0000 -17475.1663 2271.4684 0.0000 0.0000 2896.8342 -12269.4819 299.3641 -15166.3160 -12264.8811 302.1113 -427.9341 -259.0144 50181.1440 0.8301 0.8840
ENERGY: 925000 5.1263 4.2500 24.0525 0.0000 -17631.5705 2365.8650 0.0000 0.0000 2944.2953 -12287.9814 304.2688 -15232.2767 -12281.1635 299.7302 134.4395 200.5611 50016.9540 -0.1317 -0.4254
ENERGY: 1125000 5.6913 5.5852 24.3627 0.0000 -17779.1828 2495.8519 0.0000 0.0000 2859.5907 -12388.1010 295.5153 -15247.6917 -12382.7912 300.8905 395.3906 529.5066 50108.1858 0.1302 0.7372
ENERGY: 1325000 1.4315 3.6931 27.5431 0.0000 -17380.5583 2210.5184 0.0000 0.0000 2872.3758 -12264.9964 296.8365 -15137.3722 -12261.7656 299.0128 -759.9068 -632.3860 50962.0441 5.3126 5.4433
TCL: Exiting due to exit command.
