Info: SIMULATION PARAMETERS:
Info: TIMESTEP               2
Info: NUMBER OF STEPS        0
Info: STEPS PER CYCLE        10
Info: PERIODIC CELL BASIS 1  31.0699 0 0
Info: PERIODIC CELL BASIS 2  0 31.4473 0
Info: PERIODIC CELL BASIS 3  0 0 31.7244
Info: PERIODIC CELL CENTER   0 0 0
Info: WRAPPING WATERS AROUND PERIODIC BOUNDARIES ON OUTPUT.
Info: WRAPPING ALL CLUSTERS AROUND PERIODIC BOUNDARIES ON OUTPUT.
Info: FIRST LDB TIMESTEP     50
Info: LAST LDB TIMESTEP     -1
Info: HOM BACKGROUND SCALING 1
Info: PME BACKGROUND SCALING 1
Info: MIN ATOMS PER PATCH    40
Info: EMPTY PATCH LOAD       40 ATOMS
Info: VELOCITY FILE          mobley_2784376_equil.vel
Info: CENTER OF MASS MOVING INITIALLY? NO
Info: DIELECTRIC             1
Info: EXCLUDE                SCALED ONE-FOUR
Info: 1-4 ELECTROSTATICS SCALED BY 0.833333
Info: MODIFIED 1-4 VDW PARAMETERS WILL BE USED
Info: DCD FILENAME           mobley_2784376_prod.dcd
Info: DCD FREQUENCY          100000
Info: DCD FIRST STEP         100000
Info: DCD FILE WILL CONTAIN UNIT CELL DATA
Info: XST FILENAME           mobley_2784376_prod.xst
Info: XST FREQUENCY          100000
Info: NO VELOCITY DCD OUTPUT
Info: NO FORCE DCD OUTPUT
Info: OUTPUT FILENAME        mobley_2784376_prod
Info: BINARY OUTPUT FILES WILL BE USED
Info: RESTART FILENAME       mobley_2784376_prod.restart
Info: RESTART FREQUENCY      100000
Info: BINARY RESTART FILES WILL BE USED
Info: CUTOFF                 9
Info: PAIRLIST DISTANCE      11
Info: PAIRLIST SHRINK RATE   0.01
Info: PAIRLIST GROW RATE     0.01
Info: PAIRLIST TRIGGER       0.3
Info: PAIRLISTS PER CYCLE    2
Info: PAIRLISTS ENABLED
Info: MARGIN                 2
Info: HYDROGEN GROUP CUTOFF  2.5
Info: PATCH DIMENSION        15.5
Info: ENERGY OUTPUT STEPS    100000
Info: ENERGY EVALUATION STEPS    100000
Info: OUTPUT ENERGY PRECISION 4
Info: CROSSTERM ENERGY INCLUDED IN DIHEDRAL
Info: TIMING OUTPUT STEPS    1000000
Info: PRESSURE OUTPUT STEPS  100000
Info: ALCHEMICAL FEP ON
Info: FEP CURRENT LAMBDA VALUE     0
Info: FEP COMPARISON LAMBDA VALUE  0.05
Info: FEP INTRA-ALCHEMICAL NON-BONDED INTERACTIONS WILL BE RETAINED
Info: FEP INTRA-ALCHEMICAL BONDED INTERACTIONS WILL BE RETAINED
Info: FEP VDW SHIFTING COEFFICIENT 5
Info: FEP ELEC. ACTIVE FOR ANNIHILATED PARTICLES BETWEEN LAMBDA = 0 AND LAMBDA = 0.5
Info: FEP ELEC. ACTIVE FOR EXNIHILATED PARTICLES BETWEEN LAMBDA = 0.5 AND LAMBDA = 1
Info: FEP VDW ACTIVE FOR ANNIHILATED PARTICLES BETWEEN LAMBDA = 0 AND LAMBDA = 1
Info: FEP VDW ACTIVE FOR EXNIHILATED PARTICLES BETWEEN LAMBDA = 0 AND LAMBDA = 1
Info: FEP BOND ACTIVE FOR ANNIHILATED PARTICLES BETWEEN LAMBDA = 1 AND LAMBDA = 1
Info: FEP BOND ACTIVE FOR EXNIHILATED PARTICLES BETWEEN LAMBDA = 0 AND LAMBDA = 0
Info: LANGEVIN DYNAMICS ACTIVE
Info: LANGEVIN TEMPERATURE   300
Info: LANGEVIN USING BBK INTEGRATOR
Info: LANGEVIN DAMPING COEFFICIENT IS 1 INVERSE PS
Info: LANGEVIN DYNAMICS APPLIED TO HYDROGENS
Info: LANGEVIN PISTON PRESSURE CONTROL ACTIVE
Info:        TARGET PRESSURE IS 1.01325 BAR
Info:     OSCILLATION PERIOD IS 50 FS
Info:             DECAY TIME IS 25 FS
Info:     PISTON TEMPERATURE IS 300 K
Info:       PRESSURE CONTROL IS GROUP-BASED
Info:    INITIAL STRAIN RATE IS 4.40434e-05 4.40434e-05 4.40434e-05
Info:       CELL FLUCTUATION IS ISOTROPIC
Info: PARTICLE MESH EWALD (PME) ACTIVE
Info: PME TOLERANCE               1e-06
Info: PME EWALD COEFFICIENT       0.348832
Info: PME INTERPOLATION ORDER     4
Info: PME GRID DIMENSIONS         32 32 32
Info: PME MAXIMUM GRID SPACING    1
Info: PME CALCULATION WILL BE PERFORMED ON GPU
Info: FULL ELECTROSTATIC EVALUATION FREQUENCY      2
Info: USING VERLET I (r-RESPA) MTS SCHEME.
Info: C1 SPLITTING OF LONG RANGE ELECTROSTATICS
Info: PLACING ATOMS IN PATCHES BY HYDROGEN GROUPS
Info: RIGID BONDS TO HYDROGEN : ALL
Info:         ERROR TOLERANCE : 1e-08
Info:          MAX ITERATIONS : 100
Info: RIGID WATER USING SETTLE ALGORITHM
Info: RANDOM NUMBER SEED     1742091259
Info: USE HYDROGEN BONDS?    NO
Info: Using AMBER format force field!
Info: AMBER PARM FILE        mobley_2784376.prmtop
Info: COORDINATE PDB         mobley_2784376.pdb
Info: Exclusions will be read from PARM file!
Info: SCNB (VDW SCALING)     2
Info: USING ARITHMETIC MEAN TO COMBINE L-J SIGMA PARAMETERS
Info: BINARY COORDINATES     mobley_2784376_equil.coor
Info: SUMMARY OF PARAMETERS:
Info: 4 BONDS
Info: 3 ANGLES
Info:   3 HARMONIC
Info:   0 COSINE-BASED
Info: 1 DIHEDRAL
Info: 0 IMPROPER
Info: 0 CROSSTERM
Info: 0 VDW
Info: 10 VDW_PAIRS
Info: 0 NBTHOLE_PAIRS
Info: To read alchdata from file: mobley_2784376.pdb
Info: To read alchflag data from column: 5
Info: STRUCTURE SUMMARY:
Info: 2985 ATOMS
Info: 2985 BONDS
Info: 18 ANGLES
Info: 24 DIHEDRALS
Info: 0 IMPROPERS
Info: 0 CROSSTERMS
Info: 3012 EXCLUSIONS
Info: 2982 RIGID BONDS
Info: ALCH: 0 ATOMS TO DISAPPEAR IN FINAL STATE
Info: ALCH: 9 ATOMS TO APPEAR IN FINAL STATE
Info: 5973 DEGREES OF FREEDOM
Info: 995 HYDROGEN GROUPS
Info: 3 ATOMS IN LARGEST HYDROGEN GROUP
Info: 995 MIGRATION GROUPS
Info: 3 ATOMS IN LARGEST MIGRATION GROUP
Info: TOTAL MASS = 17914 amu
Info: TOTAL CHARGE = 0.000300005 e
Info: MASS DENSITY = 0.959695 g/cm^3
Info: ATOM DENSITY = 0.0963001 atoms/A^3
Info: ADDED 0 IMPLICIT EXCLUSIONS
Info: NONBONDED TABLE R-SQUARED SPACING: 0.0625
Info: NONBONDED TABLE SIZE: 705 POINTS
Info: REMOVING COM VELOCITY 0.0539063 -0.140986 -0.104379
Info: Use 3D box decompostion in PME FFT.
Info: Updated CUDA force table with 4096 elements.
Info: Updated CUDA LJ table with 4 x 4 elements.
Info: Found 12 unique exclusion lists needing 20 bytes
TCL: Running for 1500000 steps
ETITLE: TS BOND ANGLE DIHED IMPRP ELECT VDW BOUNDARY MISC KINETIC TOTAL TEMP POTENTIAL TOTALAVG TEMPAVG PRESSURE GPRESSURE VOLUME PRESSAVG GPRESSAVG
ENERGY: 0 0.4836 3.9508 6.2062 0.0000 -10896.9662 1480.0114 0.0000 0.0000 1800.4791 -7605.8350 303.3793 -9406.3141 -7605.8350 303.3793 -141.2680 -74.2088 30996.8460 -141.2680 -74.2088
ENERGY: 300000 0.3647 3.1772 6.1268 0.0000 -10923.5697 1511.0205 0.0000 0.0000 1819.2165 -7583.6640 306.5365 -9402.8806 -7583.8728 303.9816 152.5231 265.8328 30853.2997 203.4402 301.0426
ENERGY: 600000 0.5881 1.8687 6.3546 0.0000 -10832.7180 1438.2261 0.0000 0.0000 1793.8920 -7591.7884 302.2694 -9385.6804 -7578.9636 302.4122 -192.7759 -106.8939 30362.0590 80.4536 185.9692
ENERGY: 900000 0.6862 4.1169 6.3307 0.0000 -10665.9112 1370.8534 0.0000 0.0000 1746.8594 -7537.0645 294.3444 -9283.9239 -7575.2550 301.0175 -535.3845 -461.9111 30974.7565 -95.4063 3.7595
ENERGY: 1200000 1.6285 3.8046 6.2562 0.0000 -10674.4381 1382.0251 0.0000 0.0000 1737.2084 -7543.5153 292.7182 -9280.7236 -7572.1588 299.3344 -764.7204 -675.3083 31015.7999 -78.3742 18.1954
ENERGY: 1500000 0.4434 5.6056 6.0044 0.0000 -10755.6416 1460.3188 0.0000 0.0000 1773.0162 -7510.2533 298.7518 -9283.2695 -7566.4851 299.7496 178.2241 270.5929 30632.7674 -37.4858 52.1798
TCL: Running FEP window   2: Lambda1 0.05   Lambda2 0.1    [dLambda 0.05  ]
TCL: Setting parameter firsttimestep to 0
TCL: Setting parameter alchLambda to 0.05
Info: NONBONDED TABLE R-SQUARED SPACING: 0.0625
Info: NONBONDED TABLE SIZE: 705 POINTS
TCL: Setting parameter alchLambda2 to 0.1
Info: NONBONDED TABLE R-SQUARED SPACING: 0.0625
Info: NONBONDED TABLE SIZE: 705 POINTS
TCL: Running for 1500000 steps
ETITLE: TS BOND ANGLE DIHED IMPRP ELECT VDW BOUNDARY MISC KINETIC TOTAL TEMP POTENTIAL TOTALAVG TEMPAVG PRESSURE GPRESSURE VOLUME PRESSAVG GPRESSAVG
ENERGY: 0 0.4434 5.6056 6.0044 0.0000 -10755.6421 1460.0972 0.0000 0.0000 1772.1166 -7511.3750 298.6002 -9283.4915 -7511.3750 298.6002 191.8714 270.2488 30632.7674 191.8714 270.2488
ENERGY: 300000 0.3892 5.3252 6.0786 0.0000 -10820.4197 1502.6372 0.0000 0.0000 1758.1448 -7547.8447 296.2460 -9305.9895 -7561.1602 295.0890 92.6605 172.2595 31207.4643 -60.9265 0.6050
ENERGY: 600000 0.2777 3.3410 6.2104 0.0000 -10808.7773 1471.9226 0.0000 0.0000 1767.7494 -7559.2763 297.8644 -9327.0257 -7565.8572 298.0850 245.6376 315.8240 30304.0071 -118.6045 -56.2671
ENERGY: 900000 1.0220 2.4600 6.2973 0.0000 -10807.0869 1522.3111 0.0000 0.0000 1842.8091 -7432.1874 310.5119 -9274.9965 -7547.0583 300.4418 939.2590 998.2052 30467.4392 12.1771 71.4389
ENERGY: 1200000 0.2628 2.3341 6.4289 0.0000 -10767.0705 1422.1930 0.0000 0.0000 1783.5190 -7552.3326 300.5215 -9335.8516 -7556.2409 300.7129 55.4630 90.9724 30396.4914 -4.6973 53.2039
ENERGY: 1500000 0.4785 2.9910 6.4581 0.0000 -10929.5834 1457.7758 0.0000 0.0000 1841.5156 -7620.3644 310.2939 -9461.8799 -7567.0723 301.6480 -254.5982 -187.1252 30686.1517 70.6524 130.5706
TCL: Running FEP window   3: Lambda1 0.1    Lambda2 0.15000000000000002 [dLambda 0.05000000000000002]
TCL: Setting parameter firsttimestep to 0
TCL: Setting parameter alchLambda to 0.1
Info: NONBONDED TABLE R-SQUARED SPACING: 0.0625
Info: NONBONDED TABLE SIZE: 705 POINTS
TCL: Setting parameter alchLambda2 to 0.15000000000000002
Info: NONBONDED TABLE R-SQUARED SPACING: 0.0625
Info: NONBONDED TABLE SIZE: 705 POINTS
TCL: Running for 1500000 steps
ETITLE: TS BOND ANGLE DIHED IMPRP ELECT VDW BOUNDARY MISC KINETIC TOTAL TEMP POTENTIAL TOTALAVG TEMPAVG PRESSURE GPRESSURE VOLUME PRESSAVG GPRESSAVG
ENERGY: 0 0.4785 2.9910 6.4581 0.0000 -10929.5828 1459.8620 0.0000 0.0000 1840.6580 -7619.1350 310.1494 -9459.7930 -7619.1350 310.1494 -269.0192 -180.1199 30686.1517 -269.0192 -180.1199
ENERGY: 300000 0.3975 2.1812 6.3201 0.0000 -10749.3884 1419.6178 0.0000 0.0000 1777.1116 -7543.7601 299.4419 -9320.8717 -7542.4576 303.9145 -281.2549 -174.9213 30763.5125 -188.3508 -97.8200
ENERGY: 600000 0.2238 2.0073 6.3565 0.0000 -10793.2303 1474.0385 0.0000 0.0000 1813.2930 -7497.3112 305.5384 -9310.6042 -7541.9785 303.5694 212.8416 293.7909 30756.5823 31.2543 107.6896
ENERGY: 900000 1.0774 3.3606 6.3309 0.0000 -10896.1386 1483.6287 0.0000 0.0000 1848.1721 -7553.5690 311.4155 -9401.7411 -7552.3238 303.0268 279.3248 293.1434 30482.7100 55.6072 123.4938
ENERGY: 1200000 1.9279 5.6064 6.1893 0.0000 -10881.6966 1477.9139 0.0000 0.0000 1767.9086 -7622.1505 297.8912 -9390.0591 -7552.8814 302.6760 -175.9715 -163.1659 30908.7620 61.3799 135.6885
ENERGY: 1500000 0.5068 5.3424 6.0379 0.0000 -10836.8843 1476.7274 0.0000 0.0000 1827.5104 -7520.7593 307.9341 -9348.2697 -7555.2273 302.9848 -33.6996 -8.6738 30927.6540 1.9053 72.6403
TCL: Running FEP window   4: Lambda1 0.15000000000000002 Lambda2 0.2    [dLambda 0.04999999999999999]
TCL: Setting parameter firsttimestep to 0
TCL: Setting parameter alchLambda to 0.15000000000000002
Info: NONBONDED TABLE R-SQUARED SPACING: 0.0625
Info: NONBONDED TABLE SIZE: 705 POINTS
TCL: Setting parameter alchLambda2 to 0.2
Info: NONBONDED TABLE R-SQUARED SPACING: 0.0625
Info: NONBONDED TABLE SIZE: 705 POINTS
TCL: Running for 1500000 steps
ETITLE: TS BOND ANGLE DIHED IMPRP ELECT VDW BOUNDARY MISC KINETIC TOTAL TEMP POTENTIAL TOTALAVG TEMPAVG PRESSURE GPRESSURE VOLUME PRESSAVG GPRESSAVG
ENERGY: 0 0.5068 5.3424 6.0379 0.0000 -10836.8835 1477.0266 0.0000 0.0000 1826.6439 -7521.3260 307.7880 -9347.9698 -7521.3260 307.7880 -91.2535 -2.1986 30927.6540 -91.2535 -2.1986
ENERGY: 300000 0.4915 3.5743 6.2598 0.0000 -10825.8424 1514.4953 0.0000 0.0000 1778.8681 -7522.1535 299.7379 -9301.0216 -7545.0652 305.6875 457.3190 543.9442 30743.4779 40.1546 109.9380
ENERGY: 600000 0.9970 3.0122 6.2302 0.0000 -10816.1053 1441.4736 0.0000 0.0000 1781.9484 -7582.4440 300.2569 -9364.3924 -7529.2064 303.5901 133.7860 216.1519 30393.3989 34.3402 103.4707
ENERGY: 900000 0.2700 2.7007 6.0856 0.0000 -10787.2245 1450.2373 0.0000 0.0000 1799.1030 -7528.8279 303.1474 -9327.9309 -7540.2341 303.2483 -35.9330 57.8719 30552.5571 30.1049 102.0315
ENERGY: 1200000 1.4192 2.9547 6.1273 0.0000 -10735.1325 1436.6805 0.0000 0.0000 1800.2510 -7487.6998 303.3409 -9287.9508 -7548.9070 302.7920 129.5781 185.1042 30777.3266 -32.4696 42.9161
ENERGY: 1500000 0.2635 5.1781 5.8771 0.0000 -10771.5668 1436.3373 0.0000 0.0000 1818.9856 -7504.9253 306.4976 -9323.9108 -7554.9680 302.7612 9.2573 69.3488 30316.9786 -32.5293 39.8202
TCL: Running FEP window   5: Lambda1 0.2    Lambda2 0.25   [dLambda 0.04999999999999999]
TCL: Setting parameter firsttimestep to 0
TCL: Setting parameter alchLambda to 0.2
Info: NONBONDED TABLE R-SQUARED SPACING: 0.0625
Info: NONBONDED TABLE SIZE: 705 POINTS
TCL: Setting parameter alchLambda2 to 0.25
Info: NONBONDED TABLE R-SQUARED SPACING: 0.0625
Info: NONBONDED TABLE SIZE: 705 POINTS
TCL: Running for 1500000 steps
ETITLE: TS BOND ANGLE DIHED IMPRP ELECT VDW BOUNDARY MISC KINETIC TOTAL TEMP POTENTIAL TOTALAVG TEMPAVG PRESSURE GPRESSURE VOLUME PRESSAVG GPRESSAVG
ENERGY: 0 0.2635 5.1781 5.8771 0.0000 -10771.5661 1438.2624 0.0000 0.0000 1818.0817 -7503.9034 306.3453 -9321.9851 -7503.9034 306.3453 0.4233 78.6899 30316.9786 0.4233 78.6899
ENERGY: 300000 1.5487 3.3538 6.2854 0.0000 -10973.1387 1543.3266 0.0000 0.0000 1746.5248 -7672.0994 294.2880 -9418.6242 -7599.2647 299.5422 427.2750 461.5715 30828.6698 -25.1340 48.4056
ENERGY: 600000 0.3507 2.0194 6.4539 0.0000 -10863.4390 1427.2037 0.0000 0.0000 1841.5124 -7585.8990 310.2934 -9427.4114 -7582.1842 302.1455 -412.2222 -302.7742 30661.5101 -114.7829 -37.9024
ENERGY: 900000 0.3897 3.1937 6.1145 0.0000 -10837.0718 1484.2537 0.0000 0.0000 1770.3112 -7572.8090 298.2960 -9343.1202 -7583.6748 301.6785 200.1599 335.1447 30708.5512 -37.1919 44.0968
ENERGY: 1200000 1.4757 7.1006 6.2842 0.0000 -10845.9809 1512.0456 0.0000 0.0000 1766.4811 -7552.5936 297.6507 -9319.0747 -7571.3919 301.8722 643.9531 616.8619 30312.9825 -13.6515 49.4353
ENERGY: 1500000 0.3272 4.0058 5.9743 0.0000 -10717.4761 1385.7884 0.0000 0.0000 1777.0586 -7544.3217 299.4330 -9321.3804 -7570.9557 300.7296 -533.8692 -457.7756 30856.1457 -86.5290 -23.0231
TCL: Running FEP window   6: Lambda1 0.25   Lambda2 0.3    [dLambda 0.04999999999999999]
TCL: Setting parameter firsttimestep to 0
TCL: Setting parameter alchLambda to 0.25
Info: NONBONDED TABLE R-SQUARED SPACING: 0.0625
Info: NONBONDED TABLE SIZE: 705 POINTS
TCL: Setting parameter alchLambda2 to 0.3
Info: NONBONDED TABLE R-SQUARED SPACING: 0.0625
Info: NONBONDED TABLE SIZE: 705 POINTS
TCL: Running for 1500000 steps
ETITLE: TS BOND ANGLE DIHED IMPRP ELECT VDW BOUNDARY MISC KINETIC TOTAL TEMP POTENTIAL TOTALAVG TEMPAVG PRESSURE GPRESSURE VOLUME PRESSAVG GPRESSAVG
ENERGY: 0 0.3272 4.0058 5.9743 0.0000 -10717.4753 1390.8316 0.0000 0.0000 1776.1718 -7540.1645 299.2835 -9316.3363 -7540.1645 299.2835 -529.7313 -439.0555 30856.1457 -529.7313 -439.0555
ENERGY: 300000 1.8032 2.3306 6.3046 0.0000 -10753.9222 1369.5559 0.0000 0.0000 1822.7275 -7551.2003 307.1281 -9373.9278 -7590.7222 302.8988 -846.3442 -789.8298 30836.4510 -88.3725 -23.0767
ENERGY: 600000 2.1595 4.4020 6.1262 0.0000 -10733.3406 1447.9684 0.0000 0.0000 1784.3183 -7488.3661 300.6562 -9272.6844 -7566.4167 301.6927 155.8010 126.4988 30856.0955 -108.3726 -60.8852
ENERGY: 900000 0.2263 3.6759 6.3953 0.0000 -10858.9850 1477.2975 0.0000 0.0000 1790.8515 -7580.5386 301.7571 -9371.3901 -7566.2273 302.5326 -159.9538 -94.3813 31091.4459 -118.8515 -66.5501
ENERGY: 1200000 0.2902 2.8722 6.1779 0.0000 -10815.3172 1440.8899 0.0000 0.0000 1790.1650 -7574.9221 301.6414 -9365.0871 -7567.5276 301.6269 -224.8133 -144.3559 30775.3797 -104.9997 -49.3444
ENERGY: 1500000 0.0865 3.4856 6.3350 0.0000 -10768.2705 1396.6443 0.0000 0.0000 1830.1724 -7531.5468 308.3826 -9361.7192 -7561.2341 301.4736 -589.1545 -572.1304 31251.0425 -226.1823 -170.3532
TCL: Running FEP window   7: Lambda1 0.3    Lambda2 0.35   [dLambda 0.04999999999999999]
TCL: Setting parameter firsttimestep to 0
TCL: Setting parameter alchLambda to 0.3
Info: NONBONDED TABLE R-SQUARED SPACING: 0.0625
Info: NONBONDED TABLE SIZE: 705 POINTS
TCL: Setting parameter alchLambda2 to 0.35
Info: NONBONDED TABLE R-SQUARED SPACING: 0.0625
Info: NONBONDED TABLE SIZE: 705 POINTS
TCL: Running for 1500000 steps
ETITLE: TS BOND ANGLE DIHED IMPRP ELECT VDW BOUNDARY MISC KINETIC TOTAL TEMP POTENTIAL TOTALAVG TEMPAVG PRESSURE GPRESSURE VOLUME PRESSAVG GPRESSAVG
ENERGY: 0 0.0865 3.4856 6.3350 0.0000 -10768.2711 1396.4622 0.0000 0.0000 1829.2593 -7532.6426 308.2288 -9361.9019 -7532.6426 308.2288 -647.8737 -571.5761 31251.0425 -647.8737 -571.5761
ENERGY: 300000 0.4434 4.6541 5.9990 0.0000 -10592.2259 1322.2059 0.0000 0.0000 1851.9478 -7406.9758 312.0517 -9258.9235 -7547.0272 301.5633 -758.7096 -709.2840 30852.2227 -290.5868 -242.2891
ENERGY: 600000 0.8968 4.5829 6.2456 0.0000 -10832.6606 1456.7066 0.0000 0.0000 1756.9716 -7607.2571 296.0483 -9364.2287 -7549.8247 299.7069 -155.9083 -76.7515 30800.5426 -246.5477 -190.9209
ENERGY: 900000 0.5765 4.9883 6.1883 0.0000 -10878.4000 1491.7107 0.0000 0.0000 1720.3269 -7654.6093 289.8737 -9374.9362 -7580.0932 297.6258 242.0260 264.3345 30675.0595 -59.5774 -4.3016
ENERGY: 1200000 0.4293 7.5842 5.8367 0.0000 -10798.3722 1432.0558 0.0000 0.0000 1790.6172 -7561.8492 301.7176 -9352.4664 -7573.7881 298.0552 -383.0562 -299.5777 31018.4308 -97.9625 -38.6206
ENERGY: 1500000 0.2598 2.9492 6.2136 0.0000 -10661.3399 1384.8925 0.0000 0.0000 1745.4492 -7521.5756 294.1068 -9267.0248 -7575.1019 298.6833 -445.2663 -372.7531 30988.1202 -82.4543 -23.9791
TCL: Running FEP window   8: Lambda1 0.35   Lambda2 0.39999999999999997 [dLambda 0.04999999999999999]
TCL: Setting parameter firsttimestep to 0
TCL: Setting parameter alchLambda to 0.35
Info: NONBONDED TABLE R-SQUARED SPACING: 0.0625
Info: NONBONDED TABLE SIZE: 705 POINTS
TCL: Setting parameter alchLambda2 to 0.39999999999999997
Info: NONBONDED TABLE R-SQUARED SPACING: 0.0625
Info: NONBONDED TABLE SIZE: 705 POINTS
TCL: Running for 1500000 steps
ETITLE: TS BOND ANGLE DIHED IMPRP ELECT VDW BOUNDARY MISC KINETIC TOTAL TEMP POTENTIAL TOTALAVG TEMPAVG PRESSURE GPRESSURE VOLUME PRESSAVG GPRESSAVG
ENERGY: 0 0.2598 2.9492 6.2136 0.0000 -10661.3411 1385.5534 0.0000 0.0000 1744.5771 -7521.7880 293.9599 -9266.3651 -7521.7880 293.9599 -439.8512 -363.7848 30988.1202 -439.8512 -363.7848
ENERGY: 300000 0.9038 2.5890 6.5071 0.0000 -10903.7447 1488.2148 0.0000 0.0000 1802.6804 -7602.8497 303.7502 -9405.5300 -7539.0314 300.7351 -187.1204 -140.4248 31119.5186 -221.9285 -135.3411
ENERGY: 600000 0.8439 4.6807 5.9712 0.0000 -10763.9059 1396.2907 0.0000 0.0000 1737.7395 -7618.3798 292.8077 -9356.1193 -7556.2418 299.0984 -827.0442 -791.1999 31459.6400 -261.6130 -195.2687
ENERGY: 900000 1.1304 6.5498 6.0270 0.0000 -10797.8561 1376.9378 0.0000 0.0000 1801.8268 -7605.3842 303.6064 -9407.2110 -7565.6981 299.7064 -652.8874 -584.6934 30370.7096 -173.1994 -105.5454
ENERGY: 1200000 0.3955 3.4491 6.4540 0.0000 -10865.1794 1409.7366 0.0000 0.0000 1750.4307 -7694.7136 294.9462 -9445.1442 -7574.5920 300.0878 -816.1145 -725.4210 30773.8776 -221.7148 -152.1596
ENERGY: 1500000 1.2852 3.0719 6.3905 0.0000 -10840.3043 1465.8899 0.0000 0.0000 1836.5636 -7527.1032 309.4595 -9363.6668 -7567.1684 301.3455 243.0373 317.2209 30558.7396 -94.9736 -32.2617
TCL: Running FEP window   9: Lambda1 0.39999999999999997 Lambda2 0.44999999999999996 [dLambda 0.04999999999999999]
TCL: Setting parameter firsttimestep to 0
TCL: Setting parameter alchLambda to 0.39999999999999997
Info: NONBONDED TABLE R-SQUARED SPACING: 0.0625
Info: NONBONDED TABLE SIZE: 705 POINTS
TCL: Setting parameter alchLambda2 to 0.44999999999999996
Info: NONBONDED TABLE R-SQUARED SPACING: 0.0625
Info: NONBONDED TABLE SIZE: 705 POINTS
TCL: Running for 1500000 steps
ETITLE: TS BOND ANGLE DIHED IMPRP ELECT VDW BOUNDARY MISC KINETIC TOTAL TEMP POTENTIAL TOTALAVG TEMPAVG PRESSURE GPRESSURE VOLUME PRESSAVG GPRESSAVG
ENERGY: 0 1.2852 3.0719 6.3905 0.0000 -10840.3036 1465.9436 0.0000 0.0000 1835.6814 -7527.9310 309.3109 -9363.6124 -7527.9310 309.3109 214.7420 318.0212 30558.7396 214.7420 318.0212
ENERGY: 300000 1.1341 4.4981 6.3646 0.0000 -10861.0006 1465.7314 0.0000 0.0000 1753.6256 -7629.6467 295.4845 -9383.2723 -7551.1139 301.0869 -75.6360 -36.4179 30857.3160 95.6580 167.1694
ENERGY: 600000 0.4768 2.4348 6.5422 0.0000 -10906.3212 1517.4041 0.0000 0.0000 1769.4532 -7610.0101 298.1515 -9379.4634 -7548.0666 302.5403 439.6206 492.2311 30522.5023 50.9736 117.1825
ENERGY: 900000 0.5134 3.0010 6.1773 0.0000 -10864.3628 1497.2647 0.0000 0.0000 1788.2479 -7569.1585 301.3184 -9357.4064 -7555.1998 301.3407 76.4249 193.1095 30646.7963 -71.1424 1.8249
ENERGY: 1200000 0.2425 3.3333 6.1070 0.0000 -10793.8950 1418.0014 0.0000 0.0000 1779.7367 -7586.4740 299.8842 -9366.2107 -7559.2814 301.2275 -273.1549 -248.8816 30634.3735 -60.7617 8.3026
ENERGY: 1500000 1.2729 3.5249 6.1693 0.0000 -10692.8793 1372.7308 0.0000 0.0000 1781.0750 -7528.1064 300.1097 -9309.1814 -7562.2949 300.8287 -481.3582 -394.1060 30682.2239 -87.6009 -16.6391
TCL: Running FEP window  10: Lambda1 0.44999999999999996 Lambda2 0.49999999999999994 [dLambda 0.04999999999999999]
TCL: Setting parameter firsttimestep to 0
TCL: Setting parameter alchLambda to 0.44999999999999996
Info: NONBONDED TABLE R-SQUARED SPACING: 0.0625
Info: NONBONDED TABLE SIZE: 705 POINTS
TCL: Setting parameter alchLambda2 to 0.49999999999999994
Info: NONBONDED TABLE R-SQUARED SPACING: 0.0625
Info: NONBONDED TABLE SIZE: 705 POINTS
TCL: Running for 1500000 steps
ETITLE: TS BOND ANGLE DIHED IMPRP ELECT VDW BOUNDARY MISC KINETIC TOTAL TEMP POTENTIAL TOTALAVG TEMPAVG PRESSURE GPRESSURE VOLUME PRESSAVG GPRESSAVG
ENERGY: 0 1.2729 3.5249 6.1693 0.0000 -10692.8796 1373.1509 0.0000 0.0000 1780.1836 -7528.5779 299.9595 -9308.7615 -7528.5779 299.9595 -472.9846 -388.7674 30682.2239 -472.9846 -388.7674
ENERGY: 300000 0.1944 4.5707 6.0668 0.0000 -10855.2542 1485.3240 0.0000 0.0000 1749.0901 -7610.0083 294.7203 -9359.0983 -7562.6130 301.7308 160.8095 279.2639 30451.6348 -111.3523 -17.2467
ENERGY: 600000 0.6536 2.3032 6.2276 0.0000 -10767.1217 1416.9192 0.0000 0.0000 1775.9066 -7565.1116 299.2389 -9341.0181 -7589.0573 299.8340 -162.5606 -120.3410 30721.7084 -202.1359 -138.6048
ENERGY: 900000 0.5845 3.6184 6.3068 0.0000 -10830.6121 1481.1349 0.0000 0.0000 1812.9040 -7526.0635 305.4729 -9338.9676 -7577.6530 300.2859 57.1725 105.5203 30932.8541 -156.8500 -89.8445
ENERGY: 1200000 0.3898 3.3377 6.0659 0.0000 -10776.6883 1523.5419 0.0000 0.0000 1804.9141 -7438.4389 304.1266 -9243.3529 -7563.0831 301.0856 902.0530 952.0404 30421.1435 -41.7804 25.4282
ENERGY: 1500000 0.2408 3.6578 6.4319 0.0000 -10910.0775 1523.5612 0.0000 0.0000 1754.1880 -7621.9977 295.5793 -9376.1857 -7571.3345 299.9834 518.2175 543.8359 30802.9797 -49.1765 14.7224
TCL: Running FEP window  11: Lambda1 0.49999999999999994 Lambda2 0.5499999999999999 [dLambda 0.04999999999999999]
TCL: Setting parameter firsttimestep to 0
TCL: Setting parameter alchLambda to 0.49999999999999994
Info: NONBONDED TABLE R-SQUARED SPACING: 0.0625
Info: NONBONDED TABLE SIZE: 705 POINTS
TCL: Setting parameter alchLambda2 to 0.5499999999999999
Info: NONBONDED TABLE R-SQUARED SPACING: 0.0625
Info: NONBONDED TABLE SIZE: 705 POINTS
TCL: Running for 1500000 steps
ETITLE: TS BOND ANGLE DIHED IMPRP ELECT VDW BOUNDARY MISC KINETIC TOTAL TEMP POTENTIAL TOTALAVG TEMPAVG PRESSURE GPRESSURE VOLUME PRESSAVG GPRESSAVG
ENERGY: 0 0.2408 3.6578 6.4319 0.0000 -10910.0777 1523.3384 0.0000 0.0000 1753.2957 -7623.1130 295.4289 -9376.4087 -7623.1130 295.4289 463.8153 543.1497 30802.9797 463.8153 543.1497
ENERGY: 300000 0.5599 4.5879 5.9562 0.0000 -10735.9044 1430.4907 0.0000 0.0000 1781.4236 -7512.8862 300.1685 -9294.3097 -7602.8656 295.6598 -63.8806 -0.7677 30741.3250 -31.6364 35.1473
ENERGY: 600000 0.5963 6.1033 6.1494 0.0000 -10765.3505 1406.5109 0.0000 0.0000 1794.2392 -7551.7514 302.3279 -9345.9906 -7589.5750 297.6860 -290.1363 -247.4371 30564.3199 -121.8149 -57.1644
ENERGY: 900000 0.2725 6.4086 6.4560 0.0000 -10870.3555 1500.1452 0.0000 0.0000 1744.2464 -7612.8269 293.9041 -9357.0732 -7600.3878 296.8282 386.6690 418.6900 30585.8810 -108.8389 -52.0156
ENERGY: 1200000 0.2452 4.2993 6.2163 0.0000 -10718.2459 1422.0265 0.0000 0.0000 1797.1897 -7488.2689 302.8250 -9285.4586 -7590.7839 297.2984 1.3977 50.3681 30699.3077 -13.8360 42.8155
ENERGY: 1500000 0.2327 4.7791 6.0733 0.0000 -10864.5648 1436.5056 0.0000 0.0000 1706.9413 -7710.0328 287.6183 -9416.9741 -7597.1365 297.1555 -154.9717 -171.6963 30387.8386 21.2519 72.2363
TCL: Running FEP window  12: Lambda1 0.5499999999999999 Lambda2 0.6    [dLambda 0.050000000000000044]
TCL: Setting parameter firsttimestep to 0
TCL: Setting parameter alchLambda to 0.5499999999999999
Info: NONBONDED TABLE R-SQUARED SPACING: 0.0625
Info: NONBONDED TABLE SIZE: 705 POINTS
TCL: Setting parameter alchLambda2 to 0.6
Info: NONBONDED TABLE R-SQUARED SPACING: 0.0625
Info: NONBONDED TABLE SIZE: 705 POINTS
TCL: Running for 1500000 steps
ETITLE: TS BOND ANGLE DIHED IMPRP ELECT VDW BOUNDARY MISC KINETIC TOTAL TEMP POTENTIAL TOTALAVG TEMPAVG PRESSURE GPRESSURE VOLUME PRESSAVG GPRESSAVG
ENERGY: 0 0.2327 4.7791 6.0733 0.0000 -10864.5661 1436.5308 0.0000 0.0000 1706.0153 -7710.9349 287.4622 -9416.9502 -7710.9349 287.4622 -244.7894 -167.8775 30387.8386 -244.7894 -167.8775
ENERGY: 300000 1.1126 1.7391 6.2451 0.0000 -10797.6573 1376.5660 0.0000 0.0000 1736.8063 -7675.1882 292.6505 -9411.9946 -7600.2956 297.8090 -711.7437 -624.6259 30718.7017 -134.9710 -44.9525
ENERGY: 600000 2.0635 2.5265 6.3231 0.0000 -10873.9591 1455.4958 0.0000 0.0000 1827.3600 -7580.1901 307.9087 -9407.5501 -7571.3615 302.4964 -86.8734 11.4965 30411.3182 -153.3840 -78.2467
ENERGY: 900000 0.4794 7.3686 6.0478 0.0000 -10812.2043 1499.5742 0.0000 0.0000 1803.8221 -7494.9122 303.9426 -9298.7343 -7549.0378 303.2371 385.3367 411.7200 30915.9052 -156.6424 -91.3327
ENERGY: 1200000 1.1929 5.4073 6.2682 0.0000 -10821.4326 1435.1287 0.0000 0.0000 1714.6238 -7658.8118 288.9128 -9373.4355 -7568.8559 301.5669 -444.4083 -332.6103 30759.9955 -226.3966 -151.8434
ENERGY: 1500000 0.9701 3.7028 6.0701 0.0000 -10921.7041 1481.4148 0.0000 0.0000 1778.6098 -7650.9364 299.6943 -9429.5462 -7580.5202 301.4098 -124.3093 0.3214 30590.7727 -243.2999 -168.8524
TCL: Running FEP window  13: Lambda1 0.6    Lambda2 0.65   [dLambda 0.050000000000000044]
TCL: Setting parameter firsttimestep to 0
TCL: Setting parameter alchLambda to 0.6
Info: NONBONDED TABLE R-SQUARED SPACING: 0.0625
Info: NONBONDED TABLE SIZE: 705 POINTS
TCL: Setting parameter alchLambda2 to 0.65
Info: NONBONDED TABLE R-SQUARED SPACING: 0.0625
Info: NONBONDED TABLE SIZE: 705 POINTS
TCL: Running for 1500000 steps
ETITLE: TS BOND ANGLE DIHED IMPRP ELECT VDW BOUNDARY MISC KINETIC TOTAL TEMP POTENTIAL TOTALAVG TEMPAVG PRESSURE GPRESSURE VOLUME PRESSAVG GPRESSAVG
ENERGY: 0 0.9701 3.7028 6.0701 0.0000 -10921.7235 1481.4694 0.0000 0.0000 1777.7034 -7651.8076 299.5416 -9429.5111 -7651.8076 299.5416 -86.9320 5.6363 30590.7727 -86.9320 5.6363
ENERGY: 300000 0.0060 7.5934 5.7299 0.0000 -10870.1419 1569.6310 0.0000 0.0000 1818.9737 -7468.2079 306.4956 -9287.1816 -7553.3176 302.5120 1265.1667 1369.4881 30291.0913 228.3290 345.6944
ENERGY: 600000 1.5867 4.1249 6.1522 0.0000 -10815.6365 1409.7538 0.0000 0.0000 1767.2282 -7626.7907 297.7766 -9394.0189 -7581.0635 300.2700 -539.7499 -550.6762 30962.6115 164.2649 246.0195
ENERGY: 900000 0.5488 2.1364 6.3151 0.0000 -10791.1196 1399.8366 0.0000 0.0000 1848.4299 -7533.8528 311.4590 -9382.2826 -7578.1675 300.9280 -339.0483 -253.0922 30503.3867 73.6150 147.3379
ENERGY: 1200000 0.1958 2.5829 6.3122 0.0000 -10983.8314 1535.2163 0.0000 0.0000 1811.2007 -7628.3236 305.1859 -9439.5243 -7591.0785 300.0217 624.5393 742.1749 30149.3021 2.0671 75.5757
ENERGY: 1500000 1.2555 9.5956 5.5018 0.0000 -10847.0830 1491.3626 0.0000 0.0000 1805.6688 -7533.6986 304.2538 -9339.3674 -7584.0945 300.1989 408.3954 419.9096 30821.2754 2.5413 67.6176
TCL: Running FEP window  14: Lambda1 0.65   Lambda2 0.7000000000000001 [dLambda 0.050000000000000044]
TCL: Setting parameter firsttimestep to 0
TCL: Setting parameter alchLambda to 0.65
Info: NONBONDED TABLE R-SQUARED SPACING: 0.0625
Info: NONBONDED TABLE SIZE: 705 POINTS
TCL: Setting parameter alchLambda2 to 0.7000000000000001
Info: NONBONDED TABLE R-SQUARED SPACING: 0.0625
Info: NONBONDED TABLE SIZE: 705 POINTS
TCL: Running for 1500000 steps
ETITLE: TS BOND ANGLE DIHED IMPRP ELECT VDW BOUNDARY MISC KINETIC TOTAL TEMP POTENTIAL TOTALAVG TEMPAVG PRESSURE GPRESSURE VOLUME PRESSAVG GPRESSAVG
ENERGY: 0 1.2555 9.5956 5.5018 0.0000 -10847.0824 1491.7692 0.0000 0.0000 1804.7842 -7534.1761 304.1047 -9338.9603 -7534.1761 304.1047 321.1485 425.6261 30821.2754 321.1485 425.6261
ENERGY: 300000 0.5132 4.5393 6.1702 0.0000 -11028.7662 1549.5726 0.0000 0.0000 1794.2121 -7673.7589 302.3233 -9467.9709 -7614.9805 298.7783 308.0595 402.6292 30807.4646 109.4040 177.6954
ENERGY: 600000 0.1366 4.1611 6.3650 0.0000 -10805.3610 1427.7811 0.0000 0.0000 1809.2829 -7557.6343 304.8627 -9366.9172 -7612.1867 298.7952 -279.2985 -224.0121 30804.3707 -58.1479 -4.1380
ENERGY: 900000 0.4626 4.7589 6.3548 0.0000 -10736.6904 1428.0847 0.0000 0.0000 1825.8951 -7471.1343 307.6619 -9297.0294 -7592.9502 299.6349 -165.3949 -97.0523 30738.2023 -64.5985 -11.6576
ENERGY: 1200000 0.1377 6.2163 6.0661 0.0000 -10719.1411 1391.8658 0.0000 0.0000 1777.3992 -7537.4562 299.4904 -9314.8553 -7599.1589 299.9010 -407.7655 -388.5372 30544.9614 -70.0293 -13.2735
ENERGY: 1500000 2.3652 1.9830 6.4021 0.0000 -10852.3243 1450.4588 0.0000 0.0000 1782.9379 -7608.1773 300.4236 -9391.1153 -7588.9086 300.3942 -46.2322 -52.0624 30678.5905 -75.7129 -19.3323
TCL: Running FEP window  15: Lambda1 0.7000000000000001 Lambda2 0.7500000000000001 [dLambda 0.050000000000000044]
TCL: Setting parameter firsttimestep to 0
TCL: Setting parameter alchLambda to 0.7000000000000001
Info: NONBONDED TABLE R-SQUARED SPACING: 0.0625
Info: NONBONDED TABLE SIZE: 705 POINTS
TCL: Setting parameter alchLambda2 to 0.7500000000000001
Info: NONBONDED TABLE R-SQUARED SPACING: 0.0625
Info: NONBONDED TABLE SIZE: 705 POINTS
TCL: Running for 1500000 steps
ETITLE: TS BOND ANGLE DIHED IMPRP ELECT VDW BOUNDARY MISC KINETIC TOTAL TEMP POTENTIAL TOTALAVG TEMPAVG PRESSURE GPRESSURE VOLUME PRESSAVG GPRESSAVG
ENERGY: 0 2.3652 1.9830 6.4021 0.0000 -10852.3493 1450.5451 0.0000 0.0000 1782.0689 -7608.9850 300.2772 -9391.0539 -7608.9850 300.2772 -130.5677 -48.6940 30678.5905 -130.5677 -48.6940
ENERGY: 300000 1.7296 2.2433 6.3379 0.0000 -10838.3713 1468.2310 0.0000 0.0000 1756.3242 -7603.5053 295.9392 -9359.8295 -7539.3572 300.2940 -145.0447 -49.2842 30924.0682 -116.9621 -34.8835
ENERGY: 600000 1.6363 6.1249 6.3251 0.0000 -10896.1681 1428.7339 0.0000 0.0000 1795.8894 -7657.4585 302.6060 -9453.3480 -7553.8009 300.9785 -338.3667 -263.4093 30441.1064 -121.7110 -59.7525
ENERGY: 900000 0.1692 6.7430 6.1069 0.0000 -10825.8291 1416.6487 0.0000 0.0000 1795.7656 -7600.3957 302.5851 -9396.1613 -7579.8895 299.2945 -385.9193 -362.4599 30521.6154 -60.8988 2.4343
ENERGY: 1200000 1.7988 7.3442 5.8211 0.0000 -10912.7260 1543.7671 0.0000 0.0000 1742.2813 -7611.7136 293.5730 -9353.9949 -7585.8566 298.1455 798.7997 904.0123 30399.4812 110.5578 179.3460
ENERGY: 1500000 0.7464 1.6758 6.2789 0.0000 -10709.5950 1397.3279 0.0000 0.0000 1764.6595 -7538.9065 297.3437 -9303.5661 -7582.7181 298.4789 -555.8451 -441.3809 30972.0169 60.8544 131.9243
TCL: Running FEP window  16: Lambda1 0.7500000000000001 Lambda2 0.8000000000000002 [dLambda 0.050000000000000044]
TCL: Setting parameter firsttimestep to 0
TCL: Setting parameter alchLambda to 0.7500000000000001
Info: NONBONDED TABLE R-SQUARED SPACING: 0.0625
Info: NONBONDED TABLE SIZE: 705 POINTS
TCL: Setting parameter alchLambda2 to 0.8000000000000002
Info: NONBONDED TABLE R-SQUARED SPACING: 0.0625
Info: NONBONDED TABLE SIZE: 705 POINTS
TCL: Running for 1500000 steps
ETITLE: TS BOND ANGLE DIHED IMPRP ELECT VDW BOUNDARY MISC KINETIC TOTAL TEMP POTENTIAL TOTALAVG TEMPAVG PRESSURE GPRESSURE VOLUME PRESSAVG GPRESSAVG
ENERGY: 0 0.7464 1.6758 6.2789 0.0000 -10709.5811 1397.6827 0.0000 0.0000 1763.7576 -7539.4397 297.1918 -9303.1974 -7539.4397 297.1918 -515.8747 -431.0156 30972.0169 -515.8747 -431.0156
ENERGY: 300000 0.1322 2.6920 6.1334 0.0000 -10954.7061 1537.2171 0.0000 0.0000 1768.1865 -7640.3450 297.9380 -9408.5315 -7610.8328 297.8939 566.9580 642.7997 30516.8574 -461.4445 -388.9825
ENERGY: 600000 0.7834 1.6184 6.3013 0.0000 -10768.6408 1440.7739 0.0000 0.0000 1767.5392 -7551.6245 297.8290 -9319.1637 -7592.1926 299.0232 -182.4588 -122.0736 30782.6111 -310.8297 -245.8849
ENERGY: 900000 1.0015 10.5783 5.7577 0.0000 -10878.0768 1479.8282 0.0000 0.0000 1743.2941 -7637.6169 293.7437 -9380.9111 -7602.6864 299.0630 -88.6373 -22.9544 31050.5427 -55.9849 4.3330
ENERGY: 1200000 0.0695 4.3165 6.0439 0.0000 -10842.5446 1510.6640 0.0000 0.0000 1725.0051 -7596.4455 290.6620 -9321.4507 -7599.3164 298.0380 361.0878 467.4651 30909.4067 12.8811 78.6497
ENERGY: 1500000 0.4698 3.9803 6.1260 0.0000 -10851.6266 1427.9372 0.0000 0.0000 1784.7163 -7628.3970 300.7233 -9413.1133 -7602.1600 298.6375 -236.3164 -182.5538 30354.9582 -52.2841 10.8877
TCL: Running FEP window  17: Lambda1 0.8000000000000002 Lambda2 0.8500000000000002 [dLambda 0.050000000000000044]
TCL: Setting parameter firsttimestep to 0
TCL: Setting parameter alchLambda to 0.8000000000000002
Info: NONBONDED TABLE R-SQUARED SPACING: 0.0625
Info: NONBONDED TABLE SIZE: 705 POINTS
TCL: Setting parameter alchLambda2 to 0.8500000000000002
Info: NONBONDED TABLE R-SQUARED SPACING: 0.0625
Info: NONBONDED TABLE SIZE: 705 POINTS
TCL: Running for 1500000 steps
ETITLE: TS BOND ANGLE DIHED IMPRP ELECT VDW BOUNDARY MISC KINETIC TOTAL TEMP POTENTIAL TOTALAVG TEMPAVG PRESSURE GPRESSURE VOLUME PRESSAVG GPRESSAVG
ENERGY: 0 0.4698 3.9803 6.1260 0.0000 -10851.6214 1428.5222 0.0000 0.0000 1783.8067 -7628.7165 300.5700 -9412.5232 -7628.7165 300.5700 -256.5621 -167.6691 30354.9582 -256.5621 -167.6691
ENERGY: 300000 0.5558 9.0587 6.3337 0.0000 -10849.1360 1463.0680 0.0000 0.0000 1793.5985 -7576.5214 302.2199 -9370.1199 -7588.9122 301.3744 142.9099 173.7557 30523.9020 165.5299 239.4451
ENERGY: 600000 0.5966 2.5091 6.1440 0.0000 -10716.2021 1394.3083 0.0000 0.0000 1814.6501 -7497.9940 305.7671 -9312.6441 -7568.3429 301.8368 -525.7748 -494.6565 31329.3050 83.2008 142.2150
ENERGY: 900000 0.4661 3.6082 6.2935 0.0000 -10839.4518 1429.5346 0.0000 0.0000 1774.0476 -7625.5018 298.9256 -9399.5494 -7575.8685 300.6933 -383.7136 -286.6054 30754.1824 177.5615 233.4543
ENERGY: 1200000 1.1822 2.8113 6.0544 0.0000 -10769.8420 1457.1825 0.0000 0.0000 1791.2958 -7511.3159 301.8319 -9302.6117 -7572.3729 300.3901 8.9952 104.7041 30875.5656 143.0895 191.0764
ENERGY: 1500000 1.3241 2.0663 6.3170 0.0000 -10750.4125 1363.1932 0.0000 0.0000 1779.3794 -7598.1325 299.8240 -9377.5120 -7570.4964 300.6801 -910.6148 -826.8343 30942.1528 20.7841 76.8020
TCL: Running FEP window  18: Lambda1 0.8500000000000002 Lambda2 0.9000000000000002 [dLambda 0.050000000000000044]
TCL: Setting parameter firsttimestep to 0
TCL: Setting parameter alchLambda to 0.8500000000000002
Info: NONBONDED TABLE R-SQUARED SPACING: 0.0625
Info: NONBONDED TABLE SIZE: 705 POINTS
TCL: Setting parameter alchLambda2 to 0.9000000000000002
Info: NONBONDED TABLE R-SQUARED SPACING: 0.0625
Info: NONBONDED TABLE SIZE: 705 POINTS
TCL: Running for 1500000 steps
ETITLE: TS BOND ANGLE DIHED IMPRP ELECT VDW BOUNDARY MISC KINETIC TOTAL TEMP POTENTIAL TOTALAVG TEMPAVG PRESSURE GPRESSURE VOLUME PRESSAVG GPRESSAVG
ENERGY: 0 1.3240 2.0663 6.3170 0.0000 -10750.4742 1363.0305 0.0000 0.0000 1778.5058 -7599.2306 299.6768 -9377.7364 -7599.2306 299.6768 -909.8262 -824.5573 30942.1528 -909.8262 -824.5573
ENERGY: 300000 0.2252 5.1860 6.2095 0.0000 -10879.0693 1479.4653 0.0000 0.0000 1747.8887 -7640.0946 294.5179 -9387.9833 -7583.4736 301.3709 -21.0945 56.4773 30684.9291 -89.6795 -14.5893
ENERGY: 600000 0.6015 2.4352 6.1709 0.0000 -10911.2915 1559.3198 0.0000 0.0000 1803.6850 -7539.0790 303.9195 -9342.7640 -7542.2078 302.4824 1170.9370 1232.8865 30254.8888 85.0998 150.0374
ENERGY: 900000 0.0157 3.4176 6.2865 0.0000 -10806.2968 1383.2613 0.0000 0.0000 1763.2972 -7650.0186 297.1142 -9413.3157 -7563.5324 301.1756 -896.2672 -801.4850 31022.4352 -77.1748 -1.3790
ENERGY: 1200000 0.1996 3.5725 6.3742 0.0000 -10830.3200 1458.0962 0.0000 0.0000 1820.0085 -7542.0689 306.6700 -9362.0774 -7555.2438 300.8171 104.1894 165.4121 30663.4983 -60.6658 15.3922
ENERGY: 1500000 0.5760 3.6772 6.1554 0.0000 -10798.1403 1447.0272 0.0000 0.0000 1781.5865 -7559.1180 300.1959 -9340.7045 -7565.1220 300.5599 -209.9396 -96.2392 31032.6183 -31.0535 52.0168
TCL: Running FEP window  19: Lambda1 0.9000000000000002 Lambda2 0.9500000000000003 [dLambda 0.050000000000000044]
TCL: Setting parameter firsttimestep to 0
TCL: Setting parameter alchLambda to 0.9000000000000002
Info: NONBONDED TABLE R-SQUARED SPACING: 0.0625
Info: NONBONDED TABLE SIZE: 705 POINTS
TCL: Setting parameter alchLambda2 to 0.9500000000000003
Info: NONBONDED TABLE R-SQUARED SPACING: 0.0625
Info: NONBONDED TABLE SIZE: 705 POINTS
TCL: Running for 1500000 steps
ETITLE: TS BOND ANGLE DIHED IMPRP ELECT VDW BOUNDARY MISC KINETIC TOTAL TEMP POTENTIAL TOTALAVG TEMPAVG PRESSURE GPRESSURE VOLUME PRESSAVG GPRESSAVG
ENERGY: 0 0.5760 3.6772 6.1554 0.0000 -10798.1943 1446.8551 0.0000 0.0000 1780.6825 -7560.2481 300.0436 -9340.9306 -7560.2481 300.0436 -185.4908 -92.4657 31032.6183 -185.4908 -92.4657
ENERGY: 300000 0.1610 4.0758 6.0909 0.0000 -10740.9240 1297.9654 0.0000 0.0000 1767.0135 -7665.6174 297.7404 -9432.6308 -7580.0839 296.9184 -1424.4047 -1368.1920 30620.5594 -541.7878 -466.8592
ENERGY: 600000 0.7956 4.6855 5.9254 0.0000 -10851.9926 1485.7211 0.0000 0.0000 1802.0015 -7552.8635 303.6358 -9354.8650 -7579.4813 298.8699 401.5932 448.1808 30516.0734 -394.2322 -333.8798
ENERGY: 900000 0.7580 3.0729 6.1353 0.0000 -10828.8078 1459.5930 0.0000 0.0000 1810.2566 -7548.9920 305.0268 -9359.2486 -7564.3223 299.5877 -161.2767 -123.4847 31511.0751 -382.9798 -322.4017
ENERGY: 1200000 0.8211 2.4504 6.1798 0.0000 -10776.5058 1500.3506 0.0000 0.0000 1784.0518 -7482.6521 300.6113 -9266.7039 -7558.3120 299.7296 536.3191 592.7022 30658.3509 -218.2939 -159.0390
ENERGY: 1500000 0.9207 5.0518 6.0176 0.0000 -10827.3425 1435.0739 0.0000 0.0000 1808.1193 -7572.1593 304.6667 -9380.2786 -7561.6959 300.0670 -264.6996 -192.9232 30583.5236 -250.8432 -189.2002
TCL: Running FEP window  20: Lambda1 0.9500000000000003 Lambda2 1.0    [dLambda 0.04999999999999971]
TCL: Setting parameter firsttimestep to 0
TCL: Setting parameter alchLambda to 0.9500000000000003
Info: NONBONDED TABLE R-SQUARED SPACING: 0.0625
Info: NONBONDED TABLE SIZE: 705 POINTS
TCL: Setting parameter alchLambda2 to 1.0
Info: NONBONDED TABLE R-SQUARED SPACING: 0.0625
Info: NONBONDED TABLE SIZE: 705 POINTS
TCL: Running for 1500000 steps
ETITLE: TS BOND ANGLE DIHED IMPRP ELECT VDW BOUNDARY MISC KINETIC TOTAL TEMP POTENTIAL TOTALAVG TEMPAVG PRESSURE GPRESSURE VOLUME PRESSAVG GPRESSAVG
ENERGY: 0 0.9207 5.0518 6.0176 0.0000 -10827.3056 1435.0037 0.0000 0.0000 1807.2244 -7573.0874 304.5159 -9380.3118 -7573.0874 304.5159 -271.6908 -186.8599 30583.5236 -271.6908 -186.8599
ENERGY: 300000 0.2765 3.8556 6.2498 0.0000 -10721.8259 1435.0843 0.0000 0.0000 1772.8918 -7503.4679 298.7309 -9276.3596 -7556.2602 302.3733 104.0654 139.5297 30879.7296 -2.0432 65.4606
ENERGY: 600000 0.0801 3.3892 6.4344 0.0000 -10828.8990 1450.1340 0.0000 0.0000 1863.5356 -7505.3257 314.0043 -9368.8613 -7560.4337 303.3998 -11.6927 76.0873 30800.4942 80.1706 141.3075
ENERGY: 900000 0.2498 3.9315 6.2787 0.0000 -11074.3192 1529.9940 0.0000 0.0000 1807.3737 -7726.4915 304.5410 -9533.8652 -7572.6243 302.3274 356.2689 402.2086 30131.2006 8.8450 64.2147
ENERGY: 1200000 0.3679 4.1097 6.0771 0.0000 -10884.0333 1402.7430 0.0000 0.0000 1750.5648 -7720.1708 294.9688 -9470.7356 -7590.2238 300.8647 -636.7824 -592.7117 30497.5706 72.7227 128.6432
ENERGY: 1500000 1.0143 2.2768 6.2034 0.0000 -10668.9363 1385.4489 0.0000 0.0000 1740.8130 -7533.1799 293.3256 -9273.9928 -7591.5134 299.6973 -476.5289 -438.1970 31005.8036 56.5527 109.9116
TCL: Exiting due to exit command.
