Info: SIMULATION PARAMETERS:
Info: TIMESTEP               2
Info: NUMBER OF STEPS        0
Info: STEPS PER CYCLE        10
Info: PERIODIC CELL BASIS 1  30.3294 0 0
Info: PERIODIC CELL BASIS 2  0 31.7232 0
Info: PERIODIC CELL BASIS 3  0 0 31.8278
Info: PERIODIC CELL CENTER   0 0 0
Info: WRAPPING WATERS AROUND PERIODIC BOUNDARIES ON OUTPUT.
Info: WRAPPING ALL CLUSTERS AROUND PERIODIC BOUNDARIES ON OUTPUT.
Info: FIRST LDB TIMESTEP     50
Info: LAST LDB TIMESTEP     -1
Info: HOM BACKGROUND SCALING 1
Info: PME BACKGROUND SCALING 1
Info: MIN ATOMS PER PATCH    40
Info: EMPTY PATCH LOAD       40 ATOMS
Info: VELOCITY FILE          mobley_4506634_equil.vel
Info: CENTER OF MASS MOVING INITIALLY? NO
Info: DIELECTRIC             1
Info: EXCLUDE                SCALED ONE-FOUR
Info: 1-4 ELECTROSTATICS SCALED BY 0.833333
Info: MODIFIED 1-4 VDW PARAMETERS WILL BE USED
Info: DCD FILENAME           mobley_4506634_prod.dcd
Info: DCD FREQUENCY          100000
Info: DCD FIRST STEP         100000
Info: DCD FILE WILL CONTAIN UNIT CELL DATA
Info: XST FILENAME           mobley_4506634_prod.xst
Info: XST FREQUENCY          100000
Info: NO VELOCITY DCD OUTPUT
Info: NO FORCE DCD OUTPUT
Info: OUTPUT FILENAME        mobley_4506634_prod
Info: BINARY OUTPUT FILES WILL BE USED
Info: RESTART FILENAME       mobley_4506634_prod.restart
Info: RESTART FREQUENCY      100000
Info: BINARY RESTART FILES WILL BE USED
Info: CUTOFF                 9
Info: PAIRLIST DISTANCE      11
Info: PAIRLIST SHRINK RATE   0.01
Info: PAIRLIST GROW RATE     0.01
Info: PAIRLIST TRIGGER       0.3
Info: PAIRLISTS PER CYCLE    2
Info: PAIRLISTS ENABLED
Info: MARGIN                 2
Info: HYDROGEN GROUP CUTOFF  2.5
Info: PATCH DIMENSION        15.5
Info: ENERGY OUTPUT STEPS    100000
Info: ENERGY EVALUATION STEPS    100000
Info: OUTPUT ENERGY PRECISION 4
Info: CROSSTERM ENERGY INCLUDED IN DIHEDRAL
Info: TIMING OUTPUT STEPS    1000000
Info: PRESSURE OUTPUT STEPS  100000
Info: FIXED ATOMS ACTIVE
Info: ALCHEMICAL FEP ON
Info: FEP CURRENT LAMBDA VALUE     1
Info: FEP COMPARISON LAMBDA VALUE  0.95
Info: FEP INTRA-ALCHEMICAL NON-BONDED INTERACTIONS WILL BE RETAINED
Info: FEP INTRA-ALCHEMICAL BONDED INTERACTIONS WILL BE RETAINED
Info: FEP VDW SHIFTING COEFFICIENT 5
Info: FEP ELEC. ACTIVE FOR ANNIHILATED PARTICLES BETWEEN LAMBDA = 0 AND LAMBDA = 0.5
Info: FEP ELEC. ACTIVE FOR EXNIHILATED PARTICLES BETWEEN LAMBDA = 0.5 AND LAMBDA = 1
Info: FEP VDW ACTIVE FOR ANNIHILATED PARTICLES BETWEEN LAMBDA = 0 AND LAMBDA = 1
Info: FEP VDW ACTIVE FOR EXNIHILATED PARTICLES BETWEEN LAMBDA = 0 AND LAMBDA = 1
Info: FEP BOND ACTIVE FOR ANNIHILATED PARTICLES BETWEEN LAMBDA = 1 AND LAMBDA = 1
Info: FEP BOND ACTIVE FOR EXNIHILATED PARTICLES BETWEEN LAMBDA = 0 AND LAMBDA = 0
Info: LANGEVIN DYNAMICS ACTIVE
Info: LANGEVIN TEMPERATURE   300
Info: LANGEVIN USING BBK INTEGRATOR
Info: LANGEVIN DAMPING COEFFICIENT IS 1 INVERSE PS
Info: LANGEVIN DYNAMICS APPLIED TO HYDROGENS
Info: LANGEVIN PISTON PRESSURE CONTROL ACTIVE
Info:        TARGET PRESSURE IS 1.01325 BAR
Info:     OSCILLATION PERIOD IS 50 FS
Info:             DECAY TIME IS 25 FS
Info:     PISTON TEMPERATURE IS 300 K
Info:       PRESSURE CONTROL IS GROUP-BASED
Info:    INITIAL STRAIN RATE IS -0.000454415 -0.000454415 -0.000454415
Info:       CELL FLUCTUATION IS ISOTROPIC
Info: PARTICLE MESH EWALD (PME) ACTIVE
Info: PME TOLERANCE               1e-06
Info: PME EWALD COEFFICIENT       0.348832
Info: PME INTERPOLATION ORDER     4
Info: PME GRID DIMENSIONS         32 32 32
Info: PME MAXIMUM GRID SPACING    1
Info: FULL ELECTROSTATIC EVALUATION FREQUENCY      2
Info: USING VERLET I (r-RESPA) MTS SCHEME.
Info: C1 SPLITTING OF LONG RANGE ELECTROSTATICS
Info: PLACING ATOMS IN PATCHES BY HYDROGEN GROUPS
Info: RIGID BONDS TO HYDROGEN : ALL
Info:         ERROR TOLERANCE : 1e-08
Info:          MAX ITERATIONS : 100
Info: RIGID WATER USING SETTLE ALGORITHM
Info: RANDOM NUMBER SEED     1742105619
Info: USE HYDROGEN BONDS?    NO
Info: Using AMBER format force field!
Info: AMBER PARM FILE        mobley_4506634.prmtop
Info: COORDINATE PDB         mobley_4506634.pdb
Info: Exclusions will be read from PARM file!
Info: SCNB (VDW SCALING)     2
Info: USING ARITHMETIC MEAN TO COMBINE L-J SIGMA PARAMETERS
Info: BINARY COORDINATES     mobley_4506634_equil.coor
Info: MIXED PRECISION AVX-512 TILES OPTIMIZATIONS: DISABLED
Info: SUMMARY OF PARAMETERS:
Info: 7 BONDS
Info: 8 ANGLES
Info:   8 HARMONIC
Info:   0 COSINE-BASED
Info: 1 DIHEDRAL
Info: 0 IMPROPER
Info: 0 CROSSTERM
Info: 0 VDW
Info: 28 VDW_PAIRS
Info: 0 NBTHOLE_PAIRS
Info: To read alchdata from file: mobley_4506634.pdb
Info: To read alchflag data from column: 5
Info: STRUCTURE SUMMARY:
Info: 2972 ATOMS
Info: 2971 BONDS
Info: 12 ANGLES
Info: 9 DIHEDRALS
Info: 0 IMPROPERS
Info: 0 CROSSTERMS
Info: 2992 EXCLUSIONS
Info: 8 FIXED ATOMS
Info: 2965 RIGID BONDS
Info: 1 RIGID BONDS BETWEEN FIXED ATOMS
Info: ALCH: 0 ATOMS TO DISAPPEAR IN FINAL STATE
Info: ALCH: 8 ATOMS TO APPEAR IN FINAL STATE
Info: 5928 DEGREES OF FREEDOM
Info: 995 HYDROGEN GROUPS
Info: 3 ATOMS IN LARGEST HYDROGEN GROUP
Info: 995 MIGRATION GROUPS
Info: 3 ATOMS IN LARGEST MIGRATION GROUP
Info: 7 HYDROGEN GROUPS WITH ALL ATOMS FIXED
Info: TOTAL MASS = 17997.2 amu
Info: TOTAL CHARGE = 9.99905e-05 e
Info: MASS DENSITY = 0.975926 g/cm^3
Info: ATOM DENSITY = 0.0970514 atoms/A^3
Info: ADDED 0 IMPLICIT EXCLUSIONS
Info: NONBONDED TABLE R-SQUARED SPACING: 0.0625
Info: NONBONDED TABLE SIZE: 705 POINTS
Info: REMOVING COM VELOCITY 0.136445 -0.139226 0.0517746
TCL: Running for 1500000 steps
ETITLE: TS BOND ANGLE DIHED IMPRP ELECT VDW BOUNDARY MISC KINETIC TOTAL TEMP POTENTIAL TOTAL3 TEMPAVG PRESSURE GPRESSURE VOLUME PRESSAVG GPRESSAVG
ENERGY: 0 0.0000 0.0000 0.0000 0.0000 -10932.5311 1491.9644 0.0000 0.0000 1742.6232 -7697.9435 295.8596 -9440.5667 -7694.4259 295.8596 174.7557 256.0019 30622.9530 174.7557 256.0019
ENERGY: 300000 0.0000 0.0000 0.0000 0.0000 -10730.7470 1378.9185 0.0000 0.0000 1791.0544 -7560.7741 304.0822 -9351.8285 -7556.2095 299.9764 -430.1781 -349.3834 30571.1385 2.4415 2.5184
ENERGY: 600000 0.0000 0.0000 0.0000 0.0000 -10739.4556 1366.6373 0.0000 0.0000 1761.6837 -7611.1345 299.0957 -9372.8182 -7607.7637 300.8199 -556.1572 -482.9822 30541.5863 4.8052 4.7055
ENERGY: 900000 0.0000 0.0000 0.0000 0.0000 -10933.5459 1472.2050 0.0000 0.0000 1737.0585 -7724.2824 294.9149 -9461.3410 -7721.0811 299.8150 -168.7733 -83.6656 30841.5155 2.6540 2.7206
ENERGY: 1200000 0.0000 0.0000 0.0000 0.0000 -10863.1392 1397.4226 0.0000 0.0000 1765.2685 -7700.4481 299.7043 -9465.7167 -7695.2355 299.9841 -332.8123 -323.7498 30034.8276 2.3742 2.3008
ENERGY: 1500000 0.0000 0.0000 0.0000 0.0000 -10792.7128 1444.0842 0.0000 0.0000 1765.9822 -7582.6464 299.8255 -9348.6286 -7579.5455 300.2806 -114.7828 8.1583 31072.1008 2.9925 3.0632
TCL: Running FEP window   2: Lambda1 0.95   Lambda2 0.8999999999999999 [dLambda -0.050000000000000044]
TCL: Setting parameter firsttimestep to 0
TCL: Setting parameter alchLambda to 0.95
Info: NONBONDED TABLE R-SQUARED SPACING: 0.0625
Info: NONBONDED TABLE SIZE: 705 POINTS
TCL: Setting parameter alchLambda2 to 0.8999999999999999
Info: NONBONDED TABLE R-SQUARED SPACING: 0.0625
Info: NONBONDED TABLE SIZE: 705 POINTS
TCL: Running for 1500000 steps
ETITLE: TS BOND ANGLE DIHED IMPRP ELECT VDW BOUNDARY MISC KINETIC TOTAL TEMP POTENTIAL TOTAL3 TEMPAVG PRESSURE GPRESSURE VOLUME PRESSAVG GPRESSAVG
ENERGY: 0 0.0000 0.0000 0.0000 0.0000 -10792.4449 1444.5921 0.0000 0.0000 1765.0939 -7582.7588 299.6746 -9347.8527 -7579.7925 299.6746 -88.5139 3.3557 31072.1008 -88.5139 3.3557
ENERGY: 300000 0.0000 0.0000 0.0000 0.0000 -10928.6426 1539.7135 0.0000 0.0000 1699.8575 -7689.0715 288.5989 -9388.9291 -7685.4247 300.6286 547.1030 670.6412 30775.6663 2.6659 2.7244
ENERGY: 600000 0.0000 0.0000 0.0000 0.0000 -10741.5805 1385.4682 0.0000 0.0000 1740.7973 -7615.3150 295.5496 -9356.1123 -7613.9252 300.0646 -445.9255 -402.3595 30635.4303 2.1988 2.1840
ENERGY: 900000 0.0000 0.0000 0.0000 0.0000 -10923.0817 1524.6861 0.0000 0.0000 1791.6720 -7606.7237 304.1870 -9398.3956 -7601.2647 300.2822 597.9325 624.6149 30721.7661 4.7667 4.6031
ENERGY: 1200000 0.0000 0.0000 0.0000 0.0000 -10827.4561 1463.1979 0.0000 0.0000 1757.5187 -7606.7395 298.3885 -9364.2582 -7606.2964 300.3531 87.5270 96.5663 30955.2362 2.5790 2.5555
ENERGY: 1500000 0.0000 0.0000 0.0000 0.0000 -10950.8723 1471.6444 0.0000 0.0000 1794.0668 -7685.1611 304.5936 -9479.2279 -7683.1798 300.7706 170.6115 250.3003 30207.2483 1.7338 1.5851
TCL: Running FEP window   3: Lambda1 0.8999999999999999 Lambda2 0.8499999999999999 [dLambda -0.050000000000000044]
TCL: Setting parameter firsttimestep to 0
TCL: Setting parameter alchLambda to 0.8999999999999999
Info: NONBONDED TABLE R-SQUARED SPACING: 0.0625
Info: NONBONDED TABLE SIZE: 705 POINTS
TCL: Setting parameter alchLambda2 to 0.8499999999999999
Info: NONBONDED TABLE R-SQUARED SPACING: 0.0625
Info: NONBONDED TABLE SIZE: 705 POINTS
TCL: Running for 1500000 steps
ETITLE: TS BOND ANGLE DIHED IMPRP ELECT VDW BOUNDARY MISC KINETIC TOTAL TEMP POTENTIAL TOTAL3 TEMPAVG PRESSURE GPRESSURE VOLUME PRESSAVG GPRESSAVG
ENERGY: 0 0.0000 0.0000 0.0000 0.0000 -10950.6882 1471.5667 0.0000 0.0000 1793.2204 -7685.9010 304.4499 -9479.1215 -7683.4175 304.4499 154.7633 235.9899 30207.2483 154.7633 235.9899
ENERGY: 300000 0.0000 0.0000 0.0000 0.0000 -10813.4532 1462.8834 0.0000 0.0000 1738.5445 -7612.0254 295.1671 -9350.5699 -7609.8114 300.6018 109.6413 177.0457 30922.2468 2.9592 3.0349
ENERGY: 600000 0.0000 0.0000 0.0000 0.0000 -10680.9852 1343.2900 0.0000 0.0000 1775.4268 -7562.2684 301.4289 -9337.6952 -7558.2851 300.2660 -628.1307 -554.2104 30588.4558 2.6729 2.5481
ENERGY: 900000 0.0000 0.0000 0.0000 0.0000 -10913.1097 1498.6493 0.0000 0.0000 1845.7863 -7568.6740 313.3745 -9414.4604 -7565.0232 300.0464 328.1738 387.2740 30546.7344 4.3617 4.4286
ENERGY: 1200000 0.0000 0.0000 0.0000 0.0000 -10864.2739 1484.2337 0.0000 0.0000 1771.4275 -7608.6127 300.7500 -9380.0402 -7607.3030 300.1353 208.4363 307.4699 30642.8293 4.3591 4.1501
ENERGY: 1500000 0.0000 0.0000 0.0000 0.0000 -10813.7542 1409.7331 0.0000 0.0000 1764.8409 -7639.1801 299.6317 -9404.0211 -7636.8028 300.1389 -493.9828 -410.2808 30744.0093 3.7108 3.6624
TCL: Running FEP window   4: Lambda1 0.8499999999999999 Lambda2 0.7999999999999998 [dLambda -0.050000000000000044]
TCL: Setting parameter firsttimestep to 0
TCL: Setting parameter alchLambda to 0.8499999999999999
Info: NONBONDED TABLE R-SQUARED SPACING: 0.0625
Info: NONBONDED TABLE SIZE: 705 POINTS
TCL: Setting parameter alchLambda2 to 0.7999999999999998
Info: NONBONDED TABLE R-SQUARED SPACING: 0.0625
Info: NONBONDED TABLE SIZE: 705 POINTS
TCL: Running for 1500000 steps
ETITLE: TS BOND ANGLE DIHED IMPRP ELECT VDW BOUNDARY MISC KINETIC TOTAL TEMP POTENTIAL TOTAL3 TEMPAVG PRESSURE GPRESSURE VOLUME PRESSAVG GPRESSAVG
ENERGY: 0 0.0000 0.0000 0.0000 0.0000 -10813.7685 1410.2460 0.0000 0.0000 1763.9776 -7639.5449 299.4851 -9403.5225 -7637.9040 299.4851 -490.1074 -413.6958 30744.0093 -490.1074 -413.6958
ENERGY: 300000 0.0000 0.0000 0.0000 0.0000 -10668.4866 1359.2733 0.0000 0.0000 1746.1754 -7563.0379 296.4627 -9309.2133 -7560.9601 300.8638 -751.2198 -718.7280 31426.7421 3.8663 3.6029
ENERGY: 600000 0.0000 0.0000 0.0000 0.0000 -10681.8663 1312.1782 0.0000 0.0000 1787.6575 -7582.0307 303.5055 -9369.6881 -7577.3585 300.1540 -1360.7676 -1280.3242 31467.9286 2.4475 2.3988
ENERGY: 900000 0.0000 0.0000 0.0000 0.0000 -10917.2590 1504.3651 0.0000 0.0000 1774.8431 -7638.0508 301.3298 -9412.8939 -7635.3958 300.1011 361.5617 465.5582 30545.8960 2.9943 2.9670
ENERGY: 1200000 0.0000 0.0000 0.0000 0.0000 -10853.1871 1422.1182 0.0000 0.0000 1820.0335 -7611.0354 309.0022 -9431.0689 -7607.5702 300.0053 -171.7227 -158.1734 30452.8459 3.8223 3.6926
ENERGY: 1500000 0.0000 0.0000 0.0000 0.0000 -10765.4908 1377.4430 0.0000 0.0000 1828.8419 -7559.2059 310.4977 -9388.0478 -7554.1434 300.9380 -577.3614 -484.3342 30691.1867 3.2218 3.3134
TCL: Running FEP window   5: Lambda1 0.7999999999999998 Lambda2 0.7499999999999998 [dLambda -0.050000000000000044]
TCL: Setting parameter firsttimestep to 0
TCL: Setting parameter alchLambda to 0.7999999999999998
Info: NONBONDED TABLE R-SQUARED SPACING: 0.0625
Info: NONBONDED TABLE SIZE: 705 POINTS
TCL: Setting parameter alchLambda2 to 0.7499999999999998
Info: NONBONDED TABLE R-SQUARED SPACING: 0.0625
Info: NONBONDED TABLE SIZE: 705 POINTS
TCL: Running for 1500000 steps
ETITLE: TS BOND ANGLE DIHED IMPRP ELECT VDW BOUNDARY MISC KINETIC TOTAL TEMP POTENTIAL TOTAL3 TEMPAVG PRESSURE GPRESSURE VOLUME PRESSAVG GPRESSAVG
ENERGY: 0 0.0000 0.0000 0.0000 0.0000 -10765.1416 1376.8600 0.0000 0.0000 1827.9454 -7560.3363 310.3455 -9388.2816 -7557.2187 310.3455 -580.0061 -500.6888 30691.1867 -580.0061 -500.6888
ENERGY: 200000 0.0000 0.0000 0.0000 0.0000 -10684.7519 1355.9255 0.0000 0.0000 1785.3710 -7543.4554 303.1173 -9328.8264 -7538.8193 299.7150 -737.6709 -707.4223 30946.7389 2.8438 2.8542
ENERGY: 500000 0.0000 0.0000 0.0000 0.0000 -10730.1722 1425.5993 0.0000 0.0000 1724.2843 -7580.2886 292.7461 -9304.5729 -7577.2914 300.1266 21.0853 93.7263 30485.8564 3.1096 3.0293
ENERGY: 700000 0.0000 0.0000 0.0000 0.0000 -10675.4962 1369.4659 0.0000 0.0000 1760.8930 -7545.1373 298.9614 -9306.0302 -7542.2600 300.3013 -265.1288 -230.8220 30419.3160 2.7062 2.9687
ENERGY: 1000000 0.0000 0.0000 0.0000 0.0000 -10612.4101 1280.5140 0.0000 0.0000 1760.4851 -7571.4110 298.8922 -9331.8961 -7566.5282 300.2991 -1158.4074 -1103.3409 30461.4856 3.0089 2.9070
ENERGY: 1200000 0.0000 0.0000 0.0000 0.0000 -10933.8746 1506.5370 0.0000 0.0000 1745.2423 -7682.0953 296.3043 -9427.3376 -7679.2139 300.0873 385.8601 481.8481 30442.0178 3.3815 3.5303
