Info: SIMULATION PARAMETERS:
Info: TIMESTEP               2
Info: NUMBER OF STEPS        0
Info: STEPS PER CYCLE        10
Info: PERIODIC CELL BASIS 1  39.806 0 0
Info: PERIODIC CELL BASIS 2  0 39.115 0
Info: PERIODIC CELL BASIS 3  0 0 41.374
Info: PERIODIC CELL CENTER   0 0 0
Info: WRAPPING WATERS AROUND PERIODIC BOUNDARIES ON OUTPUT.
Info: WRAPPING ALL CLUSTERS AROUND PERIODIC BOUNDARIES ON OUTPUT.
Info: FIRST LDB TIMESTEP     50
Info: LAST LDB TIMESTEP     -1
Info: HOM BACKGROUND SCALING 1
Info: PME BACKGROUND SCALING 1
Info: MIN ATOMS PER PATCH    40
Info: EMPTY PATCH LOAD       40 ATOMS
Info: INITIAL TEMPERATURE    300
Info: CENTER OF MASS MOVING INITIALLY? NO
Info: DIELECTRIC             1
Info: EXCLUDE                SCALED ONE-FOUR
Info: 1-4 ELECTROSTATICS SCALED BY 0.833333
Info: MODIFIED 1-4 VDW PARAMETERS WILL BE USED
Info: DCD FILENAME           mobley_820789_min.dcd
Info: DCD FREQUENCY          5000
Info: DCD FIRST STEP         5000
Info: DCD FILE WILL CONTAIN UNIT CELL DATA
Info: XST FILENAME           mobley_820789_min.xst
Info: XST FREQUENCY          5000
Info: NO VELOCITY DCD OUTPUT
Info: NO FORCE DCD OUTPUT
Info: OUTPUT FILENAME        mobley_820789_min
Info: BINARY OUTPUT FILES WILL BE USED
Info: RESTART FILENAME       mobley_820789_min.restart
Info: RESTART FREQUENCY      5000
Info: BINARY RESTART FILES WILL BE USED
Info: CUTOFF                 9
Info: PAIRLIST DISTANCE      11
Info: PAIRLIST SHRINK RATE   0.01
Info: PAIRLIST GROW RATE     0.01
Info: PAIRLIST TRIGGER       0.3
Info: PAIRLISTS PER CYCLE    2
Info: PAIRLISTS ENABLED
Info: MARGIN                 8
Info: HYDROGEN GROUP CUTOFF  2.5
Info: PATCH DIMENSION        21.5
Info: ENERGY OUTPUT STEPS    5000
Info: ENERGY EVALUATION STEPS    5000
Info: OUTPUT ENERGY PRECISION 4
Info: CROSSTERM ENERGY INCLUDED IN DIHEDRAL
Info: TIMING OUTPUT STEPS    50000
Info: PRESSURE OUTPUT STEPS  5000
Info: LANGEVIN DYNAMICS ACTIVE
Info: LANGEVIN TEMPERATURE   300
Info: LANGEVIN USING BBK INTEGRATOR
Info: LANGEVIN DAMPING COEFFICIENT IS 1 INVERSE PS
Info: LANGEVIN DYNAMICS APPLIED TO HYDROGENS
Info: LANGEVIN PISTON PRESSURE CONTROL ACTIVE
Info:        TARGET PRESSURE IS 1.01325 BAR
Info:     OSCILLATION PERIOD IS 50 FS
Info:             DECAY TIME IS 25 FS
Info:     PISTON TEMPERATURE IS 300 K
Info:       PRESSURE CONTROL IS GROUP-BASED
Info:    INITIAL STRAIN RATE IS 0 0 0
Info:       CELL FLUCTUATION IS ISOTROPIC
Info: PARTICLE MESH EWALD (PME) ACTIVE
Info: PME TOLERANCE               1e-06
Info: PME EWALD COEFFICIENT       0.348832
Info: PME INTERPOLATION ORDER     4
Info: PME GRID DIMENSIONS         40 40 44
Info: PME MAXIMUM GRID SPACING    1
Info: FULL ELECTROSTATIC EVALUATION FREQUENCY      2
Info: USING VERLET I (r-RESPA) MTS SCHEME.
Info: C1 SPLITTING OF LONG RANGE ELECTROSTATICS
Info: PLACING ATOMS IN PATCHES BY HYDROGEN GROUPS
Info: RIGID BONDS TO HYDROGEN : ALL
Info:         ERROR TOLERANCE : 1e-08
Info:          MAX ITERATIONS : 100
Info: RIGID WATER USING SETTLE ALGORITHM
Info: RANDOM NUMBER SEED     1741391145
Info: USE HYDROGEN BONDS?    NO
Info: Using AMBER format force field!
Info: AMBER PARM FILE        mobley_820789.prmtop
Info: COORDINATE PDB         mobley_820789.pdb
Info: Exclusions will be read from PARM file!
Info: SCNB (VDW SCALING)     2
Info: USING ARITHMETIC MEAN TO COMBINE L-J SIGMA PARAMETERS
Info: SUMMARY OF PARAMETERS:
Info: 8 BONDS
Info: 9 ANGLES
Info:   9 HARMONIC
Info:   0 COSINE-BASED
Info: 16 DIHEDRAL
Info: 0 IMPROPER
Info: 0 CROSSTERM
Info: 0 VDW
Info: 36 VDW_PAIRS
Info: 0 NBTHOLE_PAIRS
Info: STRUCTURE SUMMARY:
Info: 4577 ATOMS
Info: 4576 BONDS
Info: 22 ANGLES
Info: 34 DIHEDRALS
Info: 0 IMPROPERS
Info: 0 CROSSTERMS
Info: 4624 EXCLUSIONS
Info: 4571 RIGID BONDS
Info: 9160 DEGREES OF FREEDOM
Info: 1527 HYDROGEN GROUPS
Info: 4 ATOMS IN LARGEST HYDROGEN GROUP
Info: 1527 MIGRATION GROUPS
Info: 4 ATOMS IN LARGEST MIGRATION GROUP
Info: TOTAL MASS = 27490.4 amu
Info: TOTAL CHARGE = 0.000199962 e
Info: MASS DENSITY = 0.708633 g/cm^3
Info: ATOM DENSITY = 0.0710496 atoms/A^3
Info: ADDED 0 IMPLICIT EXCLUSIONS
Info: NONBONDED TABLE R-SQUARED SPACING: 0.0625
Info: NONBONDED TABLE SIZE: 705 POINTS
Info: REMOVING COM VELOCITY -0.0823548 -0.145508 0.0784058
TCL: Minimizing for 2000 steps
ETITLE: TS BOND ANGLE DIHED IMPRP ELECT VDW BOUNDARY MISC KINETIC TOTAL TEMP POTENTIAL TOTAL3 TEMPAVG PRESSURE GPRESSURE VOLUME PRESSAVG GPRESSAVG
ENERGY: 0 0.1672 2.0106 16.4811 0.0000 -14271.6328 1654.2836 0.0000 0.0000 0.0000 -12598.6903 0.0000 -12598.6903 -12598.6903 0.0000 11114.6258 -15294.4853 64419.8017 11114.6258 -15294.4853
ENERGY: 400 4.5416 0.8333 15.6769 0.0000 -19218.7159 2820.5885 0.0000 0.0000 0.0000 -16377.0756 0.0000 -16377.0756 -16377.0756 0.0000 15667.2765 15801.3501 64419.8017 15667.2765 15801.3501
ENERGY: 800 0.5352 1.0114 14.0305 0.0000 -20267.1447 3312.2765 0.0000 0.0000 0.0000 -16939.2911 0.0000 -16939.2911 -16939.2911 0.0000 17979.3203 18083.5279 64419.8017 17979.3203 18083.5279
ENERGY: 1200 0.3932 0.4502 14.3157 0.0000 -20685.9414 3499.9461 0.0000 0.0000 0.0000 -17170.8361 0.0000 -17170.8361 -17170.8361 0.0000 18974.3916 19067.0399 64419.8017 18974.3916 19067.0399
ENERGY: 1600 3.4514 0.3247 14.4117 0.0000 -20920.0396 3621.5371 0.0000 0.0000 0.0000 -17280.3146 0.0000 -17280.3146 -17280.3146 0.0000 19651.6520 19759.7654 64419.8017 19651.6520 19759.7654
ENERGY: 2000 0.3355 0.4107 14.2687 0.0000 -21061.6155 3688.5305 0.0000 0.0000 0.0000 -17358.0701 0.0000 -17358.0701 -17358.0701 0.0000 19962.4660 20064.5805 64419.8017 19962.4660 20064.5805
TCL: Exiting due to exit command.
Info: NAMD 3.0.1 for Linux-x86_64-multicore
Info: Please visit http://www.ks.uiuc.edu/Research/namd/
Info: for updates, documentation, and support information.
Info: Please cite Phillips et al., J. Chem. Phys. 153:044130 (2020) doi:10.1063/5.0014475
Info: in all publications reporting results obtained with NAMD.
Info: Based on Charm++/Converse 80000 for multicore-linux-x86_64-gcc
Info: Built Mon Oct 14 11:11:06 CDT 2024 by dhardy on athine.ks.uiuc.edu
Info: 1 NAMD  3.0.1  Linux-x86_64-multicore  16    k027  z5358697
Info: Running on 16 processors, 1 nodes, 1 physical nodes.
Info: CPU topology information available.
Info: Charm++/Converse parallel runtime startup completed at 0.00786011 s
Info: 1043.46 MB of memory in use based on /proc/self/stat
Info: Configuration file is mobley_820789_equil.namd
Info: Working in the current directory /srv/scratch/z5358697/prod_prep_10/820789
TCL: Running 25000 steps at 30 kelvin.
TCL: Suspending until startup complete.
Info: SIMULATION PARAMETERS:
Info: TIMESTEP               2
Info: NUMBER OF STEPS        0
Info: STEPS PER CYCLE        10
Info: PERIODIC CELL BASIS 1  39.806 0 0
Info: PERIODIC CELL BASIS 2  0 39.115 0
Info: PERIODIC CELL BASIS 3  0 0 41.374
Info: PERIODIC CELL CENTER   0 0 0
Info: WRAPPING WATERS AROUND PERIODIC BOUNDARIES ON OUTPUT.
Info: WRAPPING ALL CLUSTERS AROUND PERIODIC BOUNDARIES ON OUTPUT.
Info: FIRST LDB TIMESTEP     50
Info: LAST LDB TIMESTEP     -1
Info: HOM BACKGROUND SCALING 1
Info: PME BACKGROUND SCALING 1
Info: MIN ATOMS PER PATCH    40
Info: EMPTY PATCH LOAD       40 ATOMS
Info: INITIAL TEMPERATURE    300
Info: CENTER OF MASS MOVING INITIALLY? NO
Info: DIELECTRIC             1
Info: EXCLUDE                SCALED ONE-FOUR
Info: 1-4 ELECTROSTATICS SCALED BY 0.833333
Info: MODIFIED 1-4 VDW PARAMETERS WILL BE USED
Info: DCD FILENAME           mobley_820789_equil.dcd
Info: DCD FREQUENCY          5000
Info: DCD FIRST STEP         5000
Info: DCD FILE WILL CONTAIN UNIT CELL DATA
Info: XST FILENAME           mobley_820789_equil.xst
Info: XST FREQUENCY          5000
Info: NO VELOCITY DCD OUTPUT
Info: NO FORCE DCD OUTPUT
Info: OUTPUT FILENAME        mobley_820789_equil
Info: BINARY OUTPUT FILES WILL BE USED
Info: RESTART FILENAME       mobley_820789_equil.restart
Info: RESTART FREQUENCY      5000
Info: BINARY RESTART FILES WILL BE USED
Info: CUTOFF                 9
Info: PAIRLIST DISTANCE      11
Info: PAIRLIST SHRINK RATE   0.01
Info: PAIRLIST GROW RATE     0.01
Info: PAIRLIST TRIGGER       0.3
Info: PAIRLISTS PER CYCLE    2
Info: PAIRLISTS ENABLED
Info: MARGIN                 8
Info: HYDROGEN GROUP CUTOFF  2.5
Info: PATCH DIMENSION        21.5
Info: ENERGY OUTPUT STEPS    5000
Info: ENERGY EVALUATION STEPS    5000
Info: OUTPUT ENERGY PRECISION 4
Info: CROSSTERM ENERGY INCLUDED IN DIHEDRAL
Info: TIMING OUTPUT STEPS    50000
Info: PRESSURE OUTPUT STEPS  5000
Info: LANGEVIN DYNAMICS ACTIVE
Info: LANGEVIN TEMPERATURE   30
Info: LANGEVIN USING BBK INTEGRATOR
Info: LANGEVIN DAMPING COEFFICIENT IS 1 INVERSE PS
Info: LANGEVIN DYNAMICS APPLIED TO HYDROGENS
Info: LANGEVIN PISTON PRESSURE CONTROL ACTIVE
Info:        TARGET PRESSURE IS 1.01325 BAR
Info:     OSCILLATION PERIOD IS 50 FS
Info:             DECAY TIME IS 25 FS
Info:     PISTON TEMPERATURE IS 300 K
Info:       PRESSURE CONTROL IS GROUP-BASED
Info:    INITIAL STRAIN RATE IS 0 0 0
Info:       CELL FLUCTUATION IS ISOTROPIC
Info: PARTICLE MESH EWALD (PME) ACTIVE
Info: PME TOLERANCE               1e-06
Info: PME EWALD COEFFICIENT       0.348832
Info: PME INTERPOLATION ORDER     4
Info: PME GRID DIMENSIONS         40 40 44
Info: PME MAXIMUM GRID SPACING    1
Info: FULL ELECTROSTATIC EVALUATION FREQUENCY      2
Info: USING VERLET I (r-RESPA) MTS SCHEME.
Info: C1 SPLITTING OF LONG RANGE ELECTROSTATICS
Info: PLACING ATOMS IN PATCHES BY HYDROGEN GROUPS
Info: RIGID BONDS TO HYDROGEN : ALL
Info:         ERROR TOLERANCE : 1e-08
Info:          MAX ITERATIONS : 100
Info: RIGID WATER USING SETTLE ALGORITHM
Info: RANDOM NUMBER SEED     1741391158
Info: USE HYDROGEN BONDS?    NO
Info: Using AMBER format force field!
Info: AMBER PARM FILE        mobley_820789.prmtop
Info: COORDINATE PDB         mobley_820789.pdb
Info: Exclusions will be read from PARM file!
Info: SCNB (VDW SCALING)     2
Info: USING ARITHMETIC MEAN TO COMBINE L-J SIGMA PARAMETERS
Info: BINARY COORDINATES     mobley_820789_min.coor
Info: SUMMARY OF PARAMETERS:
Info: 8 BONDS
Info: 9 ANGLES
Info:   9 HARMONIC
Info:   0 COSINE-BASED
Info: 16 DIHEDRAL
Info: 0 IMPROPER
Info: 0 CROSSTERM
Info: 0 VDW
Info: 36 VDW_PAIRS
Info: 0 NBTHOLE_PAIRS
Info: STRUCTURE SUMMARY:
Info: 4577 ATOMS
Info: 4576 BONDS
Info: 22 ANGLES
Info: 34 DIHEDRALS
Info: 0 IMPROPERS
Info: 0 CROSSTERMS
Info: 4624 EXCLUSIONS
Info: 4571 RIGID BONDS
Info: 9160 DEGREES OF FREEDOM
Info: 1527 HYDROGEN GROUPS
Info: 4 ATOMS IN LARGEST HYDROGEN GROUP
Info: 1527 MIGRATION GROUPS
Info: 4 ATOMS IN LARGEST MIGRATION GROUP
Info: TOTAL MASS = 27490.4 amu
Info: TOTAL CHARGE = 0.000199962 e
Info: MASS DENSITY = 0.708633 g/cm^3
Info: ATOM DENSITY = 0.0710496 atoms/A^3
Info: ADDED 0 IMPLICIT EXCLUSIONS
Info: NONBONDED TABLE R-SQUARED SPACING: 0.0625
Info: NONBONDED TABLE SIZE: 705 POINTS
Info: REMOVING COM VELOCITY -0.0953272 0.0624001 -0.0989215
TCL: Running for 25000 steps
ETITLE: TS BOND ANGLE DIHED IMPRP ELECT VDW BOUNDARY MISC KINETIC TOTAL TEMP POTENTIAL TOTAL3 TEMPAVG PRESSURE GPRESSURE VOLUME PRESSAVG GPRESSAVG
ENERGY: 0 0.3355 0.4107 14.2687 0.0000 -21061.6155 3688.5305 0.0000 0.0000 2767.7410 -14590.3291 304.1028 -17358.0701 -14589.7840 304.1028 467.7224 495.9514 64419.8017 467.7224 495.9514
ENERGY: 5000 0.2570 0.6971 14.4942 0.0000 -21919.9917 3742.3619 0.0000 0.0000 276.6596 -17885.5218 30.3977 -18162.1814 -17884.7626 47.9922 -449.5974 -385.1072 44986.5815 3.8738 3.9762
ENERGY: 10000 0.0987 0.9469 14.4797 0.0000 -22009.4075 3816.9287 0.0000 0.0000 273.7382 -17903.2152 30.0767 -18176.9535 -17902.2664 30.2311 -49.8835 0.4517 44802.8683 -2.2894 -2.1472
ENERGY: 15000 0.3418 0.5352 14.8690 0.0000 -21999.3594 3773.7853 0.0000 0.0000 276.7278 -17933.1004 30.4052 -18209.8282 -17932.4224 30.2139 -272.9888 -226.2012 44668.5999 2.6069 2.6771
ENERGY: 20000 0.3323 1.2339 14.4163 0.0000 -22110.8541 3866.2555 0.0000 0.0000 281.0077 -17947.6084 30.8754 -18228.6161 -17947.0111 30.3567 158.9577 191.6537 44686.3592 2.6807 2.8909
ENERGY: 25000 0.2083 1.2357 14.5090 0.0000 -22043.9581 3759.4372 0.0000 0.0000 271.6221 -17996.9457 29.8442 -18268.5678 -17996.0698 30.3131 -516.8987 -472.4471 44663.4005 2.7895 2.6109
TCL: Running 25000 steps at 60 kelvin.
TCL: Setting parameter langevinTemp to 60
TCL: Running for 25000 steps
ETITLE: TS BOND ANGLE DIHED IMPRP ELECT VDW BOUNDARY MISC KINETIC TOTAL TEMP POTENTIAL TOTAL3 TEMPAVG PRESSURE GPRESSURE VOLUME PRESSAVG GPRESSAVG
ENERGY: 25000 0.2083 1.2357 14.5090 0.0000 -22043.9581 3759.4372 0.0000 0.0000 271.4904 -17997.0774 29.8297 -18268.5678 -17996.4394 29.8297 -517.3073 -472.3461 44663.4005 -517.3073 -472.3461
ENERGY: 30000 0.6280 1.6319 14.0760 0.0000 -21904.5559 3877.8541 0.0000 0.0000 534.9721 -17475.3938 58.7795 -18010.3659 -17474.7141 57.2655 820.2613 870.6036 44396.6687 6.7708 6.5860
ENERGY: 35000 0.7811 1.3149 14.9485 0.0000 -21645.2706 3587.7702 0.0000 0.0000 565.3584 -17475.0976 62.1182 -18040.4559 -17473.3471 60.5096 -965.8933 -910.6824 45109.3102 -3.1201 -3.0701
ENERGY: 40000 0.4349 1.5326 14.5276 0.0000 -21909.2952 3809.2889 0.0000 0.0000 547.7254 -17535.7859 60.1808 -18083.5113 -17535.0855 60.6293 268.4615 291.7293 44624.3017 7.1816 6.9960
ENERGY: 45000 0.1966 1.9362 14.5461 0.0000 -21746.3837 3645.1377 0.0000 0.0000 561.3122 -17523.2549 61.6736 -18084.5672 -17521.4499 60.3684 -685.3633 -650.1121 44886.9005 1.7431 1.4571
ENERGY: 50000 0.2573 1.7376 14.0198 0.0000 -22050.9057 3932.7539 0.0000 0.0000 552.8123 -17549.3248 60.7397 -18102.1371 -17548.2038 59.9586 904.1520 940.7267 44417.3456 7.1393 7.2046
TCL: Running 25000 steps at 90 kelvin.
TCL: Setting parameter langevinTemp to 90
TCL: Running for 25000 steps
ETITLE: TS BOND ANGLE DIHED IMPRP ELECT VDW BOUNDARY MISC KINETIC TOTAL TEMP POTENTIAL TOTAL3 TEMPAVG PRESSURE GPRESSURE VOLUME PRESSAVG GPRESSAVG
ENERGY: 50000 0.2573 1.7376 14.0198 0.0000 -22050.9057 3932.7539 0.0000 0.0000 552.5468 -17549.5903 60.7105 -18102.1371 -17548.6251 60.7105 899.9157 940.3816 44417.3456 899.9157 940.3816
ENERGY: 55000 0.2643 3.0013 14.4862 0.0000 -21460.9860 3625.5744 0.0000 0.0000 840.4253 -16977.2346 92.3409 -17817.6598 -16975.6031 87.6641 -60.5373 -21.6097 44754.4550 5.4045 5.3944
ENERGY: 60000 0.8917 3.8308 14.6597 0.0000 -21544.6763 3665.2448 0.0000 0.0000 825.3862 -17034.6632 90.6885 -17860.0494 -17031.6515 90.6834 -60.0862 8.2493 44753.9655 6.5914 6.7637
ENERGY: 65000 0.5450 2.1257 14.2217 0.0000 -21596.8535 3683.1274 0.0000 0.0000 839.8569 -17056.9767 92.2784 -17896.8336 -17054.9692 90.4740 80.9553 168.1115 44571.5172 2.4355 2.8326
ENERGY: 70000 0.9689 3.0122 14.6510 0.0000 -21596.8622 3668.3332 0.0000 0.0000 816.8374 -17093.0594 89.7492 -17909.8968 -17090.8096 90.4808 -125.0746 -61.1416 44608.2058 5.9661 6.3668
ENERGY: 75000 0.3554 1.9179 14.2904 0.0000 -21613.9816 3677.1283 0.0000 0.0000 823.0019 -17097.2877 90.4265 -17920.2896 -17095.1482 89.8224 6.6755 54.4524 44491.8068 2.2875 2.5564
TCL: Running 25000 steps at 120 kelvin.
TCL: Setting parameter langevinTemp to 120
TCL: Running for 25000 steps
ETITLE: TS BOND ANGLE DIHED IMPRP ELECT VDW BOUNDARY MISC KINETIC TOTAL TEMP POTENTIAL TOTAL3 TEMPAVG PRESSURE GPRESSURE VOLUME PRESSAVG GPRESSAVG
ENERGY: 75000 0.3554 1.9179 14.2904 0.0000 -21613.9816 3677.1283 0.0000 0.0000 822.5938 -17097.6958 90.3817 -17920.2896 -17096.0104 90.3817 0.6929 54.6514 44491.8068 0.6929 54.6514
ENERGY: 80000 0.3977 4.0144 15.1422 0.0000 -20923.4535 3347.2938 0.0000 0.0000 1078.9174 -16477.6881 118.5450 -17556.6055 -16474.7170 117.6992 -1053.7939 -1027.0507 45134.6583 5.6313 5.7273
ENERGY: 85000 0.7680 2.8498 16.4143 0.0000 -21318.8082 3623.6257 0.0000 0.0000 1085.8004 -16589.3500 119.3012 -17675.1504 -16586.8357 120.9043 259.2768 316.6537 44470.7208 5.3842 5.2323
ENERGY: 90000 1.1951 2.4878 14.1116 0.0000 -21258.2260 3527.1633 0.0000 0.0000 1094.9733 -16618.2948 120.3091 -17713.2681 -16614.6684 119.9617 -438.2459 -381.0350 44851.5911 5.2259 5.2890
ENERGY: 95000 1.4921 3.7988 15.2886 0.0000 -21226.9078 3514.3780 0.0000 0.0000 1130.4317 -16561.5186 124.2050 -17691.9503 -16558.6163 120.3623 -247.7884 -214.6712 44570.3081 1.2396 0.8708
ENERGY: 100000 0.3266 3.6954 14.2763 0.0000 -21378.3556 3651.9634 0.0000 0.0000 1081.5598 -16626.5341 118.8353 -17708.0939 -16623.2033 120.8016 269.9565 332.5529 44648.6900 3.1588 3.4355
TCL: Running 25000 steps at 150 kelvin.
TCL: Setting parameter langevinTemp to 150
TCL: Running for 25000 steps
ETITLE: TS BOND ANGLE DIHED IMPRP ELECT VDW BOUNDARY MISC KINETIC TOTAL TEMP POTENTIAL TOTAL3 TEMPAVG PRESSURE GPRESSURE VOLUME PRESSAVG GPRESSAVG
ENERGY: 100000 0.3266 3.6954 14.2763 0.0000 -21378.3556 3651.9634 0.0000 0.0000 1081.0173 -16627.0766 118.7757 -17708.0939 -16624.7155 118.7757 269.2004 333.3216 44648.6900 269.2004 333.3216
ENERGY: 105000 0.8490 2.4058 15.8629 0.0000 -20765.9894 3394.9814 0.0000 0.0000 1370.2948 -15981.5955 150.5598 -17351.8903 -15975.8264 146.5078 -274.4447 -235.5011 44971.0068 4.9810 5.0432
ENERGY: 110000 0.8060 2.3118 16.0110 0.0000 -20821.3035 3402.7851 0.0000 0.0000 1368.1857 -16031.2041 150.3280 -17399.3898 -16027.6928 149.3414 -203.8699 -156.9094 44762.8525 9.7564 10.1447
ENERGY: 115000 0.5267 1.9832 14.3204 0.0000 -21015.7246 3545.3418 0.0000 0.0000 1361.8733 -16091.6792 149.6345 -17453.5525 -16087.9085 150.7482 527.6994 576.3059 44452.5878 1.1773 0.8834
ENERGY: 120000 0.6085 2.6421 14.4527 0.0000 -20843.9561 3413.9012 0.0000 0.0000 1351.2176 -16061.1340 148.4637 -17412.3516 -16057.2515 149.6806 -306.1920 -238.9881 44859.3213 -1.0986 -1.1180
ENERGY: 125000 0.5412 2.4615 14.8842 0.0000 -21038.1704 3587.8346 0.0000 0.0000 1331.5962 -16100.8527 146.3078 -17432.4488 -16098.2139 149.5204 638.9816 681.8388 44565.6303 2.7426 2.1375
TCL: Running 50000 steps at 180 kelvin.
TCL: Setting parameter langevinTemp to 180
TCL: Running for 50000 steps
ETITLE: TS BOND ANGLE DIHED IMPRP ELECT VDW BOUNDARY MISC KINETIC TOTAL TEMP POTENTIAL TOTAL3 TEMPAVG PRESSURE GPRESSURE VOLUME PRESSAVG GPRESSAVG
ENERGY: 125000 0.5412 2.4615 14.8842 0.0000 -21038.1704 3587.8346 0.0000 0.0000 1330.8868 -16101.5620 146.2299 -17432.4488 -16099.3709 146.2299 635.2443 681.3199 44565.6303 635.2443 681.3199
ENERGY: 135000 0.4344 3.6477 15.4786 0.0000 -20362.1646 3279.8284 0.0000 0.0000 1642.5307 -15420.2448 180.4714 -17062.7755 -15416.4989 180.1009 -49.6282 -13.9900 44957.2343 -2.1205 -1.7807
ENERGY: 145000 0.5777 1.2551 15.0108 0.0000 -20364.3921 3294.6341 0.0000 0.0000 1642.8057 -15410.1085 180.5016 -17052.9143 -15407.0998 180.9068 180.8872 230.3079 44464.3187 3.9917 4.1437
ENERGY: 155000 0.7903 4.4599 14.6059 0.0000 -20197.0377 3170.2985 0.0000 0.0000 1626.9508 -15379.9324 178.7596 -17006.8832 -15376.7769 179.8496 -428.3934 -376.4057 44740.4670 0.2153 -0.0524
ENERGY: 165000 1.1826 4.4589 14.0680 0.0000 -20141.4939 3144.2592 0.0000 0.0000 1633.3392 -15344.1860 179.4615 -16977.5252 -15340.8797 180.7272 -453.0499 -374.9762 44468.1816 1.9893 2.3390
ENERGY: 175000 1.5884 4.3020 14.5546 0.0000 -20426.7927 3305.0253 0.0000 0.0000 1640.2609 -15461.0614 180.2220 -17101.3223 -15456.0014 180.6333 -26.4386 73.5088 44608.3327 7.0253 6.7175
TCL: Running 50000 steps at 210 kelvin.
TCL: Setting parameter langevinTemp to 210
TCL: Running for 50000 steps
ETITLE: TS BOND ANGLE DIHED IMPRP ELECT VDW BOUNDARY MISC KINETIC TOTAL TEMP POTENTIAL TOTAL3 TEMPAVG PRESSURE GPRESSURE VOLUME PRESSAVG GPRESSAVG
ENERGY: 175000 1.5884 4.3020 14.5546 0.0000 -20426.7927 3305.0253 0.0000 0.0000 1639.4298 -15461.8925 180.1307 -17101.3223 -15458.4160 180.1307 16.1348 74.3696 44608.3327 16.1348 74.3696
ENERGY: 185000 0.1340 2.6500 14.4168 0.0000 -19283.7131 2873.4505 0.0000 0.0000 1875.5100 -14517.5518 206.0698 -16393.0618 -14513.3134 209.8163 -652.1907 -598.7735 44991.9877 0.8845 1.1820
ENERGY: 195000 0.2843 4.7837 15.7888 0.0000 -19243.4232 2867.0296 0.0000 0.0000 1882.1090 -14473.4278 206.7948 -16355.5368 -14469.7957 209.9024 -493.6235 -398.5929 44665.7948 0.3395 0.5826
ENERGY: 205000 3.4706 2.9111 16.8948 0.0000 -19225.9541 2896.5935 0.0000 0.0000 1891.9948 -14414.0893 207.8810 -16306.0841 -14411.2690 211.5363 -314.3284 -179.0536 44666.3530 3.3498 4.0970
ENERGY: 215000 1.0211 3.4335 15.2044 0.0000 -19250.5787 2857.7691 0.0000 0.0000 1857.3463 -14515.8042 204.0741 -16373.1505 -14510.9512 208.6148 -657.3238 -594.1123 44789.9548 3.2976 3.0506
ENERGY: 225000 0.9667 4.7485 14.1734 0.0000 -19293.5620 2913.2961 0.0000 0.0000 1910.4472 -14449.9301 209.9085 -16360.3774 -14444.6289 211.1337 -141.4036 -107.1083 44595.8342 5.4559 5.5077
TCL: Running 50000 steps at 240 kelvin.
TCL: Setting parameter langevinTemp to 240
TCL: Running for 50000 steps
ETITLE: TS BOND ANGLE DIHED IMPRP ELECT VDW BOUNDARY MISC KINETIC TOTAL TEMP POTENTIAL TOTAL3 TEMPAVG PRESSURE GPRESSURE VOLUME PRESSAVG GPRESSAVG
ENERGY: 225000 0.9667 4.7485 14.1734 0.0000 -19293.5620 2913.2961 0.0000 0.0000 1909.4673 -14450.9100 209.8008 -16360.3774 -14447.8310 209.8008 -192.8517 -106.7216 44595.8342 -192.8517 -106.7216
ENERGY: 235000 2.3495 2.5001 14.6252 0.0000 -18280.3556 2623.1831 0.0000 0.0000 2235.8625 -13401.8352 245.6631 -15637.6977 -13398.1390 241.6726 -185.5811 -102.8046 45039.1956 -0.1242 -0.7323
ENERGY: 245000 0.5290 5.2444 14.1675 0.0000 -18250.0442 2569.1861 0.0000 0.0000 2188.6183 -13472.2989 240.4722 -15660.9172 -13467.3756 239.6868 -702.4475 -627.3818 45447.1070 3.6477 3.0386
ENERGY: 255000 0.4908 4.0466 14.8785 0.0000 -18125.5734 2459.6345 0.0000 0.0000 2157.1419 -13489.3812 237.0138 -15646.5230 -13485.8770 241.1479 -1153.3453 -1056.2909 45180.8359 2.7987 2.6244
ENERGY: 265000 0.2861 4.4864 13.9806 0.0000 -18418.1825 2635.9174 0.0000 0.0000 2221.3691 -13542.1429 244.0707 -15763.5120 -13535.8290 240.8716 -374.7709 -310.0772 45188.2730 3.2270 3.8128
ENERGY: 275000 2.1457 4.9923 14.0254 0.0000 -18458.5106 2773.5961 0.0000 0.0000 2200.8976 -13462.8535 241.8214 -15663.7511 -13458.9406 239.5543 334.4623 389.7050 45665.2561 4.0761 4.9019
TCL: Running 50000 steps at 270 kelvin.
TCL: Setting parameter langevinTemp to 270
TCL: Running for 50000 steps
ETITLE: TS BOND ANGLE DIHED IMPRP ELECT VDW BOUNDARY MISC KINETIC TOTAL TEMP POTENTIAL TOTAL3 TEMPAVG PRESSURE GPRESSURE VOLUME PRESSAVG GPRESSAVG
ENERGY: 275000 2.1457 4.9923 14.0254 0.0000 -18458.5106 2773.5961 0.0000 0.0000 2199.8191 -13463.9320 241.7029 -15663.7511 -13459.8187 241.7029 315.2408 390.2675 45665.2561 315.2408 390.2675
ENERGY: 285000 1.9664 6.3826 15.0801 0.0000 -17496.2357 2501.8080 0.0000 0.0000 2470.1812 -12500.8175 271.4087 -14970.9987 -12496.8688 270.3355 503.3008 632.8356 45694.2190 0.3981 0.9018
ENERGY: 295000 1.7632 5.7437 13.5080 0.0000 -17357.5886 2328.3755 0.0000 0.0000 2452.5096 -12555.6885 269.4670 -15008.1982 -12549.7740 269.8571 -555.8407 -484.6048 45936.5702 2.6454 2.8940
ENERGY: 305000 1.0824 6.3876 15.5770 0.0000 -17452.9265 2368.8543 0.0000 0.0000 2478.0810 -12582.9442 272.2767 -15061.0252 -12576.5054 271.8978 -210.0635 -147.7604 45423.5296 3.9599 4.6888
ENERGY: 315000 0.7678 5.0977 14.0349 0.0000 -17537.2714 2488.5927 0.0000 0.0000 2466.5797 -12562.1986 271.0130 -15028.7783 -12556.0258 269.2947 316.0010 381.2598 45950.3911 4.5220 4.5357
ENERGY: 325000 0.6292 3.8499 15.3787 0.0000 -17481.2460 2421.7501 0.0000 0.0000 2461.4601 -12578.1781 270.4505 -15039.6382 -12572.4993 272.1087 -224.7649 -91.6755 45874.1337 -4.1883 -4.3127
TCL: Running 1000000 steps at 300 kelvin.
TCL: Setting parameter langevinTemp to 300
TCL: Running for 1000000 steps
ETITLE: TS BOND ANGLE DIHED IMPRP ELECT VDW BOUNDARY MISC KINETIC TOTAL TEMP POTENTIAL TOTAL3 TEMPAVG PRESSURE GPRESSURE VOLUME PRESSAVG GPRESSAVG
ENERGY: 325000 0.6292 3.8499 15.3787 0.0000 -17481.2460 2421.7501 0.0000 0.0000 2460.2931 -12579.3450 270.3222 -15039.6382 -12575.3315 270.3222 -174.6860 -91.3041 45874.1337 -174.6860 -91.3041
ENERGY: 525000 1.4876 7.3567 18.2868 0.0000 -16395.0472 2094.2743 0.0000 0.0000 2802.7401 -11470.9016 307.9482 -14273.6417 -11466.5363 300.0175 -611.4573 -547.9009 47469.7876 0.9787 1.1393
ENERGY: 725000 0.4261 6.2270 15.5538 0.0000 -16662.6814 2271.1412 0.0000 0.0000 2745.2243 -11624.1091 301.6288 -14369.3334 -11617.4869 300.4703 109.2709 213.9661 47311.9872 1.3641 1.9101
ENERGY: 925000 0.5945 8.3970 13.7495 0.0000 -16823.2108 2396.4566 0.0000 0.0000 2765.7021 -11638.3111 303.8787 -14404.0132 -11631.8422 299.4488 821.9499 961.8565 46703.0479 2.6414 2.8124
ENERGY: 1125000 2.5749 11.3357 15.2025 0.0000 -16494.2433 2220.7272 0.0000 0.0000 2795.0070 -11449.3960 307.0986 -14244.4031 -11445.4509 300.7357 14.2434 98.0076 47824.9668 4.9682 5.3639
ENERGY: 1325000 1.3981 3.0479 16.2729 0.0000 -16628.7426 2278.7414 0.0000 0.0000 2752.2816 -11577.0006 302.4042 -14329.2822 -11573.2694 300.9648 245.5298 319.3012 47450.9522 2.5727 2.5983
TCL: Exiting due to exit command.
