Info: SIMULATION PARAMETERS:
Info: TIMESTEP               2
Info: NUMBER OF STEPS        0
Info: STEPS PER CYCLE        10
Info: PERIODIC CELL BASIS 1  44.537 0 0
Info: PERIODIC CELL BASIS 2  0 41.432 0
Info: PERIODIC CELL BASIS 3  0 0 46.255
Info: PERIODIC CELL CENTER   0 0 0
Info: WRAPPING WATERS AROUND PERIODIC BOUNDARIES ON OUTPUT.
Info: WRAPPING ALL CLUSTERS AROUND PERIODIC BOUNDARIES ON OUTPUT.
Info: FIRST LDB TIMESTEP     50
Info: LAST LDB TIMESTEP     -1
Info: HOM BACKGROUND SCALING 1
Info: PME BACKGROUND SCALING 1
Info: MIN ATOMS PER PATCH    40
Info: EMPTY PATCH LOAD       40 ATOMS
Info: INITIAL TEMPERATURE    300
Info: CENTER OF MASS MOVING INITIALLY? NO
Info: DIELECTRIC             1
Info: EXCLUDE                SCALED ONE-FOUR
Info: 1-4 ELECTROSTATICS SCALED BY 0.833333
Info: MODIFIED 1-4 VDW PARAMETERS WILL BE USED
Info: DCD FILENAME           mobley_3047364_min.dcd
Info: DCD FREQUENCY          5000
Info: DCD FIRST STEP         5000
Info: DCD FILE WILL CONTAIN UNIT CELL DATA
Info: XST FILENAME           mobley_3047364_min.xst
Info: XST FREQUENCY          5000
Info: NO VELOCITY DCD OUTPUT
Info: NO FORCE DCD OUTPUT
Info: OUTPUT FILENAME        mobley_3047364_min
Info: BINARY OUTPUT FILES WILL BE USED
Info: RESTART FILENAME       mobley_3047364_min.restart
Info: RESTART FREQUENCY      5000
Info: BINARY RESTART FILES WILL BE USED
Info: CUTOFF                 9
Info: PAIRLIST DISTANCE      11
Info: PAIRLIST SHRINK RATE   0.01
Info: PAIRLIST GROW RATE     0.01
Info: PAIRLIST TRIGGER       0.3
Info: PAIRLISTS PER CYCLE    2
Info: PAIRLISTS ENABLED
Info: MARGIN                 8
Info: HYDROGEN GROUP CUTOFF  2.5
Info: PATCH DIMENSION        21.5
Info: ENERGY OUTPUT STEPS    5000
Info: ENERGY EVALUATION STEPS    5000
Info: OUTPUT ENERGY PRECISION 4
Info: CROSSTERM ENERGY INCLUDED IN DIHEDRAL
Info: TIMING OUTPUT STEPS    50000
Info: PRESSURE OUTPUT STEPS  5000
Info: LANGEVIN DYNAMICS ACTIVE
Info: LANGEVIN TEMPERATURE   300
Info: LANGEVIN USING BBK INTEGRATOR
Info: LANGEVIN DAMPING COEFFICIENT IS 1 INVERSE PS
Info: LANGEVIN DYNAMICS APPLIED TO HYDROGENS
Info: LANGEVIN PISTON PRESSURE CONTROL ACTIVE
Info:        TARGET PRESSURE IS 1.01325 BAR
Info:     OSCILLATION PERIOD IS 50 FS
Info:             DECAY TIME IS 25 FS
Info:     PISTON TEMPERATURE IS 300 K
Info:       PRESSURE CONTROL IS GROUP-BASED
Info:    INITIAL STRAIN RATE IS 0 0 0
Info:       CELL FLUCTUATION IS ISOTROPIC
Info: PARTICLE MESH EWALD (PME) ACTIVE
Info: PME TOLERANCE               1e-06
Info: PME EWALD COEFFICIENT       0.348832
Info: PME INTERPOLATION ORDER     4
Info: PME GRID DIMENSIONS         48 44 48
Info: PME MAXIMUM GRID SPACING    1
Info: FULL ELECTROSTATIC EVALUATION FREQUENCY      2
Info: USING VERLET I (r-RESPA) MTS SCHEME.
Info: C1 SPLITTING OF LONG RANGE ELECTROSTATICS
Info: PLACING ATOMS IN PATCHES BY HYDROGEN GROUPS
Info: RIGID BONDS TO HYDROGEN : ALL
Info:         ERROR TOLERANCE : 1e-08
Info:          MAX ITERATIONS : 100
Info: RIGID WATER USING SETTLE ALGORITHM
Info: RANDOM NUMBER SEED     1741325245
Info: USE HYDROGEN BONDS?    NO
Info: Using AMBER format force field!
Info: AMBER PARM FILE        mobley_3047364.prmtop
Info: COORDINATE PDB         mobley_3047364.pdb
Info: Exclusions will be read from PARM file!
Info: SCNB (VDW SCALING)     2
Info: USING ARITHMETIC MEAN TO COMBINE L-J SIGMA PARAMETERS
Info: SUMMARY OF PARAMETERS:
Info: 11 BONDS
Info: 16 ANGLES
Info:   16 HARMONIC
Info:   0 COSINE-BASED
Info: 8 DIHEDRAL
Info: 0 IMPROPER
Info: 0 CROSSTERM
Info: 0 VDW
Info: 55 VDW_PAIRS
Info: 0 NBTHOLE_PAIRS
Info: STRUCTURE SUMMARY:
Info: 6212 ATOMS
Info: 6212 BONDS
Info: 55 ANGLES
Info: 64 DIHEDRALS
Info: 0 IMPROPERS
Info: 0 CROSSTERMS
Info: 6328 EXCLUSIONS
Info: 6197 RIGID BONDS
Info: 12439 DEGREES OF FREEDOM
Info: 2075 HYDROGEN GROUPS
Info: 4 ATOMS IN LARGEST HYDROGEN GROUP
Info: 2075 MIGRATION GROUPS
Info: 4 ATOMS IN LARGEST MIGRATION GROUP
Info: TOTAL MASS = 37340.3 amu
Info: TOTAL CHARGE = -1.11759e-07 e
Info: MASS DENSITY = 0.726476 g/cm^3
Info: ATOM DENSITY = 0.0727806 atoms/A^3
Info: ADDED 0 IMPLICIT EXCLUSIONS
Info: NONBONDED TABLE R-SQUARED SPACING: 0.0625
Info: NONBONDED TABLE SIZE: 705 POINTS
Info: REMOVING COM VELOCITY -0.133048 0.0475221 -0.0676463
TCL: Minimizing for 2000 steps
ETITLE: TS BOND ANGLE DIHED IMPRP ELECT VDW BOUNDARY MISC KINETIC TOTAL TEMP POTENTIAL TOTAL3 TEMPAVG PRESSURE GPRESSURE VOLUME PRESSAVG GPRESSAVG
ENERGY: 0 1.1356 4.0002 1.2579 0.0000 -19668.9225 2145.2008 0.0000 0.0000 0.0000 -17517.3280 0.0000 -17517.3280 -17517.3280 0.0000 11025.4743 -16159.7976 85352.3618 11025.4743 -16159.7976
ENERGY: 400 8.4123 6.3845 2.4351 0.0000 -26594.6639 3928.7499 0.0000 0.0000 0.0000 -22648.6821 0.0000 -22648.6821 -22648.6821 0.0000 16426.0448 16351.1761 85352.3618 16426.0448 16351.1761
ENERGY: 800 11.8002 11.3578 3.3490 0.0000 -27764.4201 4382.9165 0.0000 0.0000 0.0000 -23354.9965 0.0000 -23354.9965 -23354.9965 0.0000 18064.1141 17972.2203 85352.3618 18064.1141 17972.2203
ENERGY: 1200 7.3216 5.7402 3.1080 0.0000 -28338.7537 4650.1755 0.0000 0.0000 0.0000 -23672.4084 0.0000 -23672.4084 -23672.4084 0.0000 19168.3514 19026.5404 85352.3618 19168.3514 19026.5404
ENERGY: 1600 5.0655 7.3226 3.0468 0.0000 -28614.8472 4754.9573 0.0000 0.0000 0.0000 -23844.4550 0.0000 -23844.4550 -23844.4550 0.0000 19557.8808 19363.0262 85352.3618 19557.8808 19363.0262
ENERGY: 2000 3.5427 4.7312 3.4764 0.0000 -28853.0745 4869.1438 0.0000 0.0000 0.0000 -23972.1803 0.0000 -23972.1803 -23972.1803 0.0000 20012.9221 19830.7215 85352.3618 20012.9221 19830.7215
TCL: Exiting due to exit command.
Info: NAMD 3.0.1 for Linux-x86_64-multicore
Info: Please visit http://www.ks.uiuc.edu/Research/namd/
Info: for updates, documentation, and support information.
Info: Please cite Phillips et al., J. Chem. Phys. 153:044130 (2020) doi:10.1063/5.0014475
Info: in all publications reporting results obtained with NAMD.
Info: Based on Charm++/Converse 80000 for multicore-linux-x86_64-gcc
Info: Built Mon Oct 14 11:11:06 CDT 2024 by dhardy on athine.ks.uiuc.edu
Info: 1 NAMD  3.0.1  Linux-x86_64-multicore  16    k015  z5358697
Info: Running on 16 processors, 1 nodes, 1 physical nodes.
Info: CPU topology information available.
Info: Charm++/Converse parallel runtime startup completed at 0.00959389 s
Info: 1043.45 MB of memory in use based on /proc/self/stat
Info: Configuration file is mobley_3047364_equil.namd
Info: Working in the current directory /srv/scratch/z5358697/prod_prep_3/3047364
TCL: Running 25000 steps at 30 kelvin.
TCL: Suspending until startup complete.
Info: SIMULATION PARAMETERS:
Info: TIMESTEP               2
Info: NUMBER OF STEPS        0
Info: STEPS PER CYCLE        10
Info: PERIODIC CELL BASIS 1  44.537 0 0
Info: PERIODIC CELL BASIS 2  0 41.432 0
Info: PERIODIC CELL BASIS 3  0 0 46.255
Info: PERIODIC CELL CENTER   0 0 0
Info: WRAPPING WATERS AROUND PERIODIC BOUNDARIES ON OUTPUT.
Info: WRAPPING ALL CLUSTERS AROUND PERIODIC BOUNDARIES ON OUTPUT.
Info: FIRST LDB TIMESTEP     50
Info: LAST LDB TIMESTEP     -1
Info: HOM BACKGROUND SCALING 1
Info: PME BACKGROUND SCALING 1
Info: MIN ATOMS PER PATCH    40
Info: EMPTY PATCH LOAD       40 ATOMS
Info: INITIAL TEMPERATURE    300
Info: CENTER OF MASS MOVING INITIALLY? NO
Info: DIELECTRIC             1
Info: EXCLUDE                SCALED ONE-FOUR
Info: 1-4 ELECTROSTATICS SCALED BY 0.833333
Info: MODIFIED 1-4 VDW PARAMETERS WILL BE USED
Info: DCD FILENAME           mobley_3047364_equil.dcd
Info: DCD FREQUENCY          5000
Info: DCD FIRST STEP         5000
Info: DCD FILE WILL CONTAIN UNIT CELL DATA
Info: XST FILENAME           mobley_3047364_equil.xst
Info: XST FREQUENCY          5000
Info: NO VELOCITY DCD OUTPUT
Info: NO FORCE DCD OUTPUT
Info: OUTPUT FILENAME        mobley_3047364_equil
Info: BINARY OUTPUT FILES WILL BE USED
Info: RESTART FILENAME       mobley_3047364_equil.restart
Info: RESTART FREQUENCY      5000
Info: BINARY RESTART FILES WILL BE USED
Info: CUTOFF                 9
Info: PAIRLIST DISTANCE      11
Info: PAIRLIST SHRINK RATE   0.01
Info: PAIRLIST GROW RATE     0.01
Info: PAIRLIST TRIGGER       0.3
Info: PAIRLISTS PER CYCLE    2
Info: PAIRLISTS ENABLED
Info: MARGIN                 8
Info: HYDROGEN GROUP CUTOFF  2.5
Info: PATCH DIMENSION        21.5
Info: ENERGY OUTPUT STEPS    5000
Info: ENERGY EVALUATION STEPS    5000
Info: OUTPUT ENERGY PRECISION 4
Info: CROSSTERM ENERGY INCLUDED IN DIHEDRAL
Info: TIMING OUTPUT STEPS    50000
Info: PRESSURE OUTPUT STEPS  5000
Info: LANGEVIN DYNAMICS ACTIVE
Info: LANGEVIN TEMPERATURE   30
Info: LANGEVIN USING BBK INTEGRATOR
Info: LANGEVIN DAMPING COEFFICIENT IS 1 INVERSE PS
Info: LANGEVIN DYNAMICS APPLIED TO HYDROGENS
Info: LANGEVIN PISTON PRESSURE CONTROL ACTIVE
Info:        TARGET PRESSURE IS 1.01325 BAR
Info:     OSCILLATION PERIOD IS 50 FS
Info:             DECAY TIME IS 25 FS
Info:     PISTON TEMPERATURE IS 300 K
Info:       PRESSURE CONTROL IS GROUP-BASED
Info:    INITIAL STRAIN RATE IS 0 0 0
Info:       CELL FLUCTUATION IS ISOTROPIC
Info: PARTICLE MESH EWALD (PME) ACTIVE
Info: PME TOLERANCE               1e-06
Info: PME EWALD COEFFICIENT       0.348832
Info: PME INTERPOLATION ORDER     4
Info: PME GRID DIMENSIONS         48 44 48
Info: PME MAXIMUM GRID SPACING    1
Info: FULL ELECTROSTATIC EVALUATION FREQUENCY      2
Info: USING VERLET I (r-RESPA) MTS SCHEME.
Info: C1 SPLITTING OF LONG RANGE ELECTROSTATICS
Info: PLACING ATOMS IN PATCHES BY HYDROGEN GROUPS
Info: RIGID BONDS TO HYDROGEN : ALL
Info:         ERROR TOLERANCE : 1e-08
Info:          MAX ITERATIONS : 100
Info: RIGID WATER USING SETTLE ALGORITHM
Info: RANDOM NUMBER SEED     1741325275
Info: USE HYDROGEN BONDS?    NO
Info: Using AMBER format force field!
Info: AMBER PARM FILE        mobley_3047364.prmtop
Info: COORDINATE PDB         mobley_3047364.pdb
Info: Exclusions will be read from PARM file!
Info: SCNB (VDW SCALING)     2
Info: USING ARITHMETIC MEAN TO COMBINE L-J SIGMA PARAMETERS
Info: BINARY COORDINATES     mobley_3047364_min.coor
Info: SUMMARY OF PARAMETERS:
Info: 11 BONDS
Info: 16 ANGLES
Info:   16 HARMONIC
Info:   0 COSINE-BASED
Info: 8 DIHEDRAL
Info: 0 IMPROPER
Info: 0 CROSSTERM
Info: 0 VDW
Info: 55 VDW_PAIRS
Info: 0 NBTHOLE_PAIRS
Info: STRUCTURE SUMMARY:
Info: 6212 ATOMS
Info: 6212 BONDS
Info: 55 ANGLES
Info: 64 DIHEDRALS
Info: 0 IMPROPERS
Info: 0 CROSSTERMS
Info: 6328 EXCLUSIONS
Info: 6197 RIGID BONDS
Info: 12439 DEGREES OF FREEDOM
Info: 2075 HYDROGEN GROUPS
Info: 4 ATOMS IN LARGEST HYDROGEN GROUP
Info: 2075 MIGRATION GROUPS
Info: 4 ATOMS IN LARGEST MIGRATION GROUP
Info: TOTAL MASS = 37340.3 amu
Info: TOTAL CHARGE = -1.11759e-07 e
Info: MASS DENSITY = 0.726476 g/cm^3
Info: ATOM DENSITY = 0.0727806 atoms/A^3
Info: ADDED 0 IMPLICIT EXCLUSIONS
Info: NONBONDED TABLE R-SQUARED SPACING: 0.0625
Info: NONBONDED TABLE SIZE: 705 POINTS
Info: REMOVING COM VELOCITY 0.0227834 0.0413278 -0.0357209
TCL: Running for 25000 steps
ETITLE: TS BOND ANGLE DIHED IMPRP ELECT VDW BOUNDARY MISC KINETIC TOTAL TEMP POTENTIAL TOTAL3 TEMPAVG PRESSURE GPRESSURE VOLUME PRESSAVG GPRESSAVG
ENERGY: 0 3.5427 4.7312 3.4764 0.0000 -28853.0745 4869.1438 0.0000 0.0000 3703.2989 -20268.8814 299.6358 -23972.1803 -20268.1463 299.6358 146.8602 190.4881 85352.3618 146.8602 190.4881
ENERGY: 5000 2.2883 6.0404 3.9688 0.0000 -30156.0345 5137.4456 0.0000 0.0000 377.8208 -24628.4705 30.5697 -25006.2914 -24627.7666 47.5783 -219.7837 -178.8269 61570.2667 -0.2797 -0.2974
ENERGY: 10000 2.6590 5.0398 3.8984 0.0000 -30145.9507 5089.5561 0.0000 0.0000 370.0330 -24674.7644 29.9396 -25044.7974 -24674.0398 30.2207 -439.3027 -388.8933 61298.7269 1.3705 1.3265
ENERGY: 15000 3.1481 5.0269 4.1680 0.0000 -30346.4554 5257.2578 0.0000 0.0000 365.1966 -24711.6579 29.5482 -25076.8545 -24711.1408 30.2236 229.3742 273.1211 61060.6069 2.3047 2.3053
ENERGY: 20000 3.5259 5.8507 4.8846 0.0000 -30386.0332 5289.4603 0.0000 0.0000 375.0765 -24707.2352 30.3476 -25082.3117 -24706.2566 29.9707 358.3277 417.1152 60849.3474 1.1826 1.1494
ENERGY: 25000 3.5864 5.4297 4.4149 0.0000 -30270.6499 5169.4006 0.0000 0.0000 370.8063 -24717.0120 30.0021 -25087.8183 -24715.9694 30.0575 -107.7404 -61.4876 61023.9009 2.0850 2.1728
TCL: Running 25000 steps at 60 kelvin.
TCL: Setting parameter langevinTemp to 60
TCL: Running for 25000 steps
ETITLE: TS BOND ANGLE DIHED IMPRP ELECT VDW BOUNDARY MISC KINETIC TOTAL TEMP POTENTIAL TOTAL3 TEMPAVG PRESSURE GPRESSURE VOLUME PRESSAVG GPRESSAVG
ENERGY: 25000 3.5864 5.4297 4.4149 0.0000 -30270.6499 5169.4006 0.0000 0.0000 370.6247 -24717.1936 29.9874 -25087.8183 -24716.3798 29.9874 -107.4888 -61.4526 61023.9009 -107.4888 -61.4526
ENERGY: 30000 4.1625 7.3820 6.0038 0.0000 -29800.3419 5005.5829 0.0000 0.0000 743.2797 -24033.9310 60.1391 -24777.2107 -24031.7623 57.0943 -215.6623 -173.9042 61577.6319 0.5710 0.8012
ENERGY: 35000 4.8153 7.2850 5.0098 0.0000 -29891.0563 5077.2633 0.0000 0.0000 739.3906 -24057.2922 59.8245 -24796.6828 -24054.7817 60.4115 98.6011 174.9683 61055.6929 1.2871 1.2919
ENERGY: 40000 4.5178 6.8050 4.6126 0.0000 -29898.6731 5046.5684 0.0000 0.0000 745.0671 -24091.1022 60.2838 -24836.1693 -24089.5602 60.2500 -63.1697 -1.2033 60928.0085 3.6487 3.5499
ENERGY: 45000 4.9096 7.0165 4.2894 0.0000 -30017.6745 5149.4558 0.0000 0.0000 738.3650 -24113.6382 59.7415 -24852.0032 -24111.5356 60.2306 469.4567 514.0235 60612.2800 2.4621 2.7037
ENERGY: 50000 5.2587 10.0183 4.8545 0.0000 -29919.9954 5016.6913 0.0000 0.0000 745.7801 -24137.3925 60.3414 -24883.1726 -24135.8783 59.9943 -235.1528 -188.7605 60902.7755 4.3267 4.0160
TCL: Running 25000 steps at 90 kelvin.
TCL: Setting parameter langevinTemp to 90
TCL: Running for 25000 steps
ETITLE: TS BOND ANGLE DIHED IMPRP ELECT VDW BOUNDARY MISC KINETIC TOTAL TEMP POTENTIAL TOTAL3 TEMPAVG PRESSURE GPRESSURE VOLUME PRESSAVG GPRESSAVG
ENERGY: 50000 5.2587 10.0183 4.8545 0.0000 -29919.9954 5016.6913 0.0000 0.0000 745.4015 -24137.7711 60.3108 -24883.1726 -24136.1320 60.3108 -243.0108 -188.9621 60902.7755 -243.0108 -188.9621
ENERGY: 55000 3.8387 10.3526 4.4175 0.0000 -29596.2495 5102.1449 0.0000 0.0000 1127.3217 -23348.1740 91.2122 -24475.4957 -23345.2245 86.6474 851.8980 905.8316 60833.5569 1.6323 1.7272
ENERGY: 60000 5.4090 8.8271 3.6312 0.0000 -29713.1020 5194.0100 0.0000 0.0000 1096.4523 -23404.7723 88.7145 -24501.2247 -23401.1984 90.1644 1085.7228 1162.1725 60806.8757 4.8418 4.8987
ENERGY: 65000 5.8988 13.5990 5.9149 0.0000 -29571.5045 4934.0347 0.0000 0.0000 1128.3974 -23483.6596 91.2992 -24612.0570 -23481.2682 90.1134 -38.9004 4.2289 60700.9677 -2.5409 -2.5218
ENERGY: 70000 3.4245 12.7444 6.0180 0.0000 -29587.4413 4912.4195 0.0000 0.0000 1114.9078 -23537.9271 90.2078 -24652.8349 -23534.4035 90.4984 -191.7946 -125.9099 60653.8741 1.9257 1.9441
ENERGY: 75000 5.0839 10.2378 4.2122 0.0000 -29467.4245 4801.2279 0.0000 0.0000 1133.3588 -23513.3038 91.7006 -24646.6627 -23510.0852 90.2236 -656.1854 -618.3687 61012.1925 2.0924 2.4108
TCL: Running 25000 steps at 120 kelvin.
TCL: Setting parameter langevinTemp to 120
TCL: Running for 25000 steps
ETITLE: TS BOND ANGLE DIHED IMPRP ELECT VDW BOUNDARY MISC KINETIC TOTAL TEMP POTENTIAL TOTAL3 TEMPAVG PRESSURE GPRESSURE VOLUME PRESSAVG GPRESSAVG
ENERGY: 75000 5.0839 10.2378 4.2122 0.0000 -29467.4245 4801.2279 0.0000 0.0000 1132.8119 -23513.8508 91.6564 -24646.6627 -23511.5803 91.6564 -672.1559 -617.9493 61012.1925 -672.1559 -617.9493
ENERGY: 80000 5.3638 10.1188 5.4612 0.0000 -29090.7496 4776.4160 0.0000 0.0000 1458.1953 -22835.1944 117.9833 -24293.3897 -22830.7390 117.2085 -177.9389 -115.7982 61077.4640 3.3818 3.3657
ENERGY: 85000 5.4430 15.1283 5.7270 0.0000 -29178.2916 4812.6656 0.0000 0.0000 1498.8837 -22840.4439 121.2754 -24339.3276 -22836.7730 120.6812 4.2442 60.1177 60656.9387 0.8264 0.6018
ENERGY: 90000 4.6720 14.8077 4.7520 0.0000 -29149.8558 4740.5683 0.0000 0.0000 1505.8175 -22879.2383 121.8365 -24385.0559 -22873.0423 120.2168 -377.1637 -306.8324 60558.9051 -1.7142 -1.6857
ENERGY: 95000 3.4541 13.2740 5.7954 0.0000 -29408.0186 4970.9864 0.0000 0.0000 1487.4493 -22927.0594 120.3503 -24414.5088 -22925.2133 119.7564 471.4036 520.0642 60429.7611 1.1450 1.2625
ENERGY: 100000 4.4984 12.1804 6.2314 0.0000 -29357.8662 4879.0924 0.0000 0.0000 1462.1600 -22993.7035 118.3041 -24455.8635 -22989.1206 119.9251 45.2225 96.2049 60479.9902 4.4693 4.4451
TCL: Running 25000 steps at 150 kelvin.
TCL: Setting parameter langevinTemp to 150
TCL: Running for 25000 steps
ETITLE: TS BOND ANGLE DIHED IMPRP ELECT VDW BOUNDARY MISC KINETIC TOTAL TEMP POTENTIAL TOTAL3 TEMPAVG PRESSURE GPRESSURE VOLUME PRESSAVG GPRESSAVG
ENERGY: 100000 4.4984 12.1804 6.2314 0.0000 -29357.8662 4879.0924 0.0000 0.0000 1461.4381 -22994.4254 118.2457 -24455.8635 -22991.6797 118.2457 38.3716 96.6849 60479.9902 38.3716 96.6849
ENERGY: 105000 6.5328 13.7985 5.5773 0.0000 -28641.3682 4659.7007 0.0000 0.0000 1853.8487 -22101.9103 149.9958 -23955.7590 -22098.4085 146.3368 17.3787 89.4119 60765.9936 0.4732 1.1435
ENERGY: 110000 6.9014 14.0564 5.7166 0.0000 -28476.4890 4462.8541 0.0000 0.0000 1829.5720 -22157.3885 148.0316 -23986.9605 -22153.4732 150.0548 -644.3196 -572.1144 60648.9379 4.8191 4.9059
ENERGY: 115000 3.5979 19.8981 5.5031 0.0000 -28610.4365 4573.8052 0.0000 0.0000 1854.4944 -22153.1379 150.0481 -24007.6323 -22149.8013 148.8993 -393.0659 -339.4099 60876.0594 1.3170 1.3580
ENERGY: 120000 5.6642 14.4723 6.7753 0.0000 -28566.2488 4528.8878 0.0000 0.0000 1853.8842 -22156.5650 149.9987 -24010.4492 -22152.2996 149.9088 -630.2951 -575.1718 61018.0544 -0.4878 -0.0931
ENERGY: 125000 5.8710 17.4882 7.2484 0.0000 -28835.5104 4747.8469 0.0000 0.0000 1844.1162 -22212.9397 149.2084 -24057.0559 -22209.7564 149.5985 195.4009 272.0549 60675.8451 -0.4197 -0.5361
TCL: Running 50000 steps at 180 kelvin.
TCL: Setting parameter langevinTemp to 180
TCL: Running for 50000 steps
ETITLE: TS BOND ANGLE DIHED IMPRP ELECT VDW BOUNDARY MISC KINETIC TOTAL TEMP POTENTIAL TOTAL3 TEMPAVG PRESSURE GPRESSURE VOLUME PRESSAVG GPRESSAVG
ENERGY: 125000 5.8710 17.4882 7.2484 0.0000 -28835.5104 4747.8469 0.0000 0.0000 1843.2118 -22213.8441 149.1352 -24057.0559 -22209.9389 149.1352 213.7880 271.7942 60675.8451 213.7880 271.7942
ENERGY: 135000 7.7363 11.4053 5.5001 0.0000 -27897.9377 4418.4726 0.0000 0.0000 2212.8792 -21241.9442 179.0452 -23454.8234 -21237.0866 180.0739 -110.9708 -28.5427 61180.2967 1.7544 1.3052
ENERGY: 145000 4.8794 13.9556 7.9961 0.0000 -28020.9370 4484.7762 0.0000 0.0000 2280.4676 -21228.8621 184.5138 -23509.3297 -21223.9549 179.1555 126.7996 183.3716 60898.4804 3.7618 3.6099
ENERGY: 155000 4.5271 13.0335 7.2366 0.0000 -27826.6342 4279.3722 0.0000 0.0000 2240.2946 -21282.1702 181.2634 -23522.4648 -21277.3651 179.7205 -828.8689 -776.9843 61002.7656 -0.7208 -0.0129
ENERGY: 165000 8.9367 14.2583 5.9884 0.0000 -28047.0804 4464.7575 0.0000 0.0000 2196.5752 -21356.5642 177.7260 -23553.1394 -21351.8613 180.5248 -87.5317 -13.9091 60972.9841 0.9010 0.2159
ENERGY: 175000 5.9604 13.5485 6.2427 0.0000 -27968.8094 4362.7970 0.0000 0.0000 2217.5686 -21362.6922 179.4246 -23580.2608 -21356.6104 178.7673 -640.2974 -590.6662 61220.1557 5.3117 4.8998
TCL: Running 50000 steps at 210 kelvin.
TCL: Setting parameter langevinTemp to 210
TCL: Running for 50000 steps
ETITLE: TS BOND ANGLE DIHED IMPRP ELECT VDW BOUNDARY MISC KINETIC TOTAL TEMP POTENTIAL TOTAL3 TEMPAVG PRESSURE GPRESSURE VOLUME PRESSAVG GPRESSAVG
ENERGY: 175000 5.9604 13.5485 6.2427 0.0000 -27968.8094 4362.7970 0.0000 0.0000 2216.4627 -21363.7981 179.3351 -23580.2608 -21358.8706 179.3351 -650.7578 -591.1876 61220.1557 -650.7578 -591.1876
ENERGY: 185000 8.7566 13.0822 6.5290 0.0000 -26732.7147 4068.2330 0.0000 0.0000 2569.9513 -20066.1625 207.9361 -22636.1138 -20060.0034 209.8194 4.7191 88.0473 60861.4373 3.7458 2.7034
ENERGY: 195000 6.0777 21.9076 6.0500 0.0000 -26791.0612 4101.9543 0.0000 0.0000 2574.3760 -20080.6956 208.2941 -22655.0716 -20074.4113 209.5102 110.4506 166.7420 60800.2580 6.9435 6.4593
ENERGY: 205000 5.0694 20.3081 5.6686 0.0000 -26535.4671 4048.0351 0.0000 0.0000 2612.8232 -19843.5627 211.4048 -22456.3859 -19835.4989 210.9384 96.6633 207.5442 61081.1902 1.8423 2.1116
ENERGY: 215000 6.9096 12.0468 5.0643 0.0000 -26721.2528 4163.9836 0.0000 0.0000 2575.0021 -19958.2464 208.3447 -22533.2486 -19954.9382 210.6689 724.5029 788.1376 60520.3242 1.2062 0.9866
ENERGY: 225000 7.4085 14.2421 9.5765 0.0000 -26703.7618 4028.5104 0.0000 0.0000 2534.2208 -20109.8035 205.0451 -22644.0243 -20105.0279 209.6798 168.0856 223.8937 60147.1985 1.3389 1.1824
TCL: Running 50000 steps at 240 kelvin.
TCL: Setting parameter langevinTemp to 240
TCL: Running for 50000 steps
ETITLE: TS BOND ANGLE DIHED IMPRP ELECT VDW BOUNDARY MISC KINETIC TOTAL TEMP POTENTIAL TOTAL3 TEMPAVG PRESSURE GPRESSURE VOLUME PRESSAVG GPRESSAVG
ENERGY: 225000 7.4085 14.2421 9.5765 0.0000 -26703.7618 4028.5104 0.0000 0.0000 2532.9555 -20111.0689 204.9427 -22644.0243 -20106.5257 204.9427 150.9485 222.9689 60147.1985 150.9485 222.9689
ENERGY: 235000 5.2747 10.9067 5.7109 0.0000 -25379.7296 3673.2981 0.0000 0.0000 2962.9632 -18721.5759 239.7349 -21684.5391 -18713.4573 240.0203 72.2181 99.7918 61443.2288 -1.4936 -0.9646
ENERGY: 245000 6.4171 15.8321 6.1645 0.0000 -25323.0986 3671.7803 0.0000 0.0000 2949.5963 -18673.3082 238.6533 -21622.9046 -18664.4146 240.0006 302.1979 384.3262 60713.8875 3.3939 3.5243
ENERGY: 255000 11.3711 13.8899 5.0517 0.0000 -25250.5499 3626.4104 0.0000 0.0000 2874.0995 -18719.7273 232.5448 -21593.8268 -18713.9762 240.8779 205.6461 269.7102 60713.0490 1.4604 1.4442
ENERGY: 265000 5.8919 18.4327 9.3762 0.0000 -25418.0451 3675.4672 0.0000 0.0000 2954.4455 -18754.4316 239.0457 -21708.8771 -18749.1072 239.7674 70.5035 130.1081 60819.9469 2.5016 1.9503
ENERGY: 275000 7.8013 11.0172 9.0177 0.0000 -25043.9320 3478.3061 0.0000 0.0000 2970.1009 -18567.6888 240.3124 -21537.7898 -18559.2858 240.7450 -464.1090 -381.9149 61759.3951 5.4601 5.8098
TCL: Running 50000 steps at 270 kelvin.
TCL: Setting parameter langevinTemp to 270
TCL: Running for 50000 steps
ETITLE: TS BOND ANGLE DIHED IMPRP ELECT VDW BOUNDARY MISC KINETIC TOTAL TEMP POTENTIAL TOTAL3 TEMPAVG PRESSURE GPRESSURE VOLUME PRESSAVG GPRESSAVG
ENERGY: 275000 7.8013 11.0172 9.0177 0.0000 -25043.9320 3478.3061 0.0000 0.0000 2968.6399 -18569.1499 240.1942 -21537.7898 -18564.3655 240.1942 -454.6093 -381.1020 61759.3951 -454.6093 -381.1020
ENERGY: 285000 7.1542 14.7619 7.5390 0.0000 -23803.1195 3169.4951 0.0000 0.0000 3361.1685 -17243.0007 271.9538 -20604.1692 -17236.0845 271.2418 -371.7429 -299.3344 62933.5944 4.5301 4.8916
ENERGY: 295000 5.1599 12.1255 7.8604 0.0000 -24133.2569 3305.9451 0.0000 0.0000 3368.1067 -17434.0592 272.5152 -20802.1658 -17425.8886 270.5251 -13.3712 70.0230 62219.5873 0.2098 0.0207
ENERGY: 305000 6.8396 22.0607 9.8663 0.0000 -24149.1041 3255.8455 0.0000 0.0000 3236.0150 -17618.4771 261.8276 -20854.4920 -17612.8489 268.8844 -303.5619 -248.3477 62144.8619 3.0306 2.2419
ENERGY: 315000 4.9909 17.7161 8.1848 0.0000 -23924.7233 3186.2045 0.0000 0.0000 3360.9847 -17346.6423 271.9390 -20707.6270 -17340.0188 271.7681 -297.4235 -222.1604 62315.1130 6.0389 6.1463
ENERGY: 325000 3.9827 17.2749 7.0804 0.0000 -24085.8439 3284.1322 0.0000 0.0000 3394.5637 -17378.8100 274.6559 -20773.3737 -17371.6268 269.7159 -97.5808 -22.6657 62420.8754 0.7940 0.7801
TCL: Running 1000000 steps at 300 kelvin.
TCL: Setting parameter langevinTemp to 300
TCL: Running for 1000000 steps
ETITLE: TS BOND ANGLE DIHED IMPRP ELECT VDW BOUNDARY MISC KINETIC TOTAL TEMP POTENTIAL TOTAL3 TEMPAVG PRESSURE GPRESSURE VOLUME PRESSAVG GPRESSAVG
ENERGY: 325000 3.9827 17.2749 7.0804 0.0000 -24085.8439 3284.1322 0.0000 0.0000 3392.8669 -17380.5068 274.5186 -20773.3737 -17374.9130 274.5186 -101.2233 -23.2126 62420.8754 -101.2233 -23.2126
ENERGY: 525000 9.5537 23.8814 8.5654 0.0000 -22986.8480 2970.2179 0.0000 0.0000 3783.8042 -16190.8254 306.1495 -19974.6296 -16177.8179 299.8538 -374.2214 -246.2737 63925.5446 4.1436 4.5484
ENERGY: 725000 11.4074 18.0768 7.9281 0.0000 -22885.3060 2948.0972 0.0000 0.0000 3761.9323 -16137.8642 304.3798 -19899.7964 -16129.4539 299.1512 -274.3367 -220.9769 64302.6967 2.2942 1.8674
ENERGY: 925000 8.6895 18.3981 6.4737 0.0000 -22833.6116 3004.7209 0.0000 0.0000 3653.7068 -16141.6226 295.6233 -19795.3294 -16132.6012 299.9457 9.0850 63.9842 64509.3709 4.5578 4.4277
ENERGY: 1125000 10.8715 17.2281 7.3291 0.0000 -23006.8515 3044.1417 0.0000 0.0000 3609.8485 -16317.4326 292.0747 -19927.2811 -16312.0879 301.1154 -116.6288 -51.2223 63934.7665 5.7745 5.6765
ENERGY: 1325000 6.7226 23.0043 8.0404 0.0000 -22926.3671 3033.0251 0.0000 0.0000 3714.0842 -16141.4904 300.5084 -19855.5746 -16134.5460 301.5708 -141.2445 -77.6783 64709.0852 -0.8377 -1.4454
TCL: Exiting due to exit command.
