Info: SIMULATION PARAMETERS:
Info: TIMESTEP               2
Info: NUMBER OF STEPS        0
Info: STEPS PER CYCLE        10
Info: PERIODIC CELL BASIS 1  40.176 0 0
Info: PERIODIC CELL BASIS 2  0 40.343 0
Info: PERIODIC CELL BASIS 3  0 0 39.271
Info: PERIODIC CELL CENTER   0 0 0
Info: WRAPPING WATERS AROUND PERIODIC BOUNDARIES ON OUTPUT.
Info: WRAPPING ALL CLUSTERS AROUND PERIODIC BOUNDARIES ON OUTPUT.
Info: FIRST LDB TIMESTEP     50
Info: LAST LDB TIMESTEP     -1
Info: HOM BACKGROUND SCALING 1
Info: PME BACKGROUND SCALING 1
Info: MIN ATOMS PER PATCH    40
Info: EMPTY PATCH LOAD       40 ATOMS
Info: INITIAL TEMPERATURE    300
Info: CENTER OF MASS MOVING INITIALLY? NO
Info: DIELECTRIC             1
Info: EXCLUDE                SCALED ONE-FOUR
Info: 1-4 ELECTROSTATICS SCALED BY 0.833333
Info: MODIFIED 1-4 VDW PARAMETERS WILL BE USED
Info: DCD FILENAME           mobley_1659169_min.dcd
Info: DCD FREQUENCY          5000
Info: DCD FIRST STEP         5000
Info: DCD FILE WILL CONTAIN UNIT CELL DATA
Info: XST FILENAME           mobley_1659169_min.xst
Info: XST FREQUENCY          5000
Info: NO VELOCITY DCD OUTPUT
Info: NO FORCE DCD OUTPUT
Info: OUTPUT FILENAME        mobley_1659169_min
Info: BINARY OUTPUT FILES WILL BE USED
Info: RESTART FILENAME       mobley_1659169_min.restart
Info: RESTART FREQUENCY      5000
Info: BINARY RESTART FILES WILL BE USED
Info: CUTOFF                 9
Info: PAIRLIST DISTANCE      11
Info: PAIRLIST SHRINK RATE   0.01
Info: PAIRLIST GROW RATE     0.01
Info: PAIRLIST TRIGGER       0.3
Info: PAIRLISTS PER CYCLE    2
Info: PAIRLISTS ENABLED
Info: MARGIN                 8
Info: HYDROGEN GROUP CUTOFF  2.5
Info: PATCH DIMENSION        21.5
Info: ENERGY OUTPUT STEPS    5000
Info: ENERGY EVALUATION STEPS    5000
Info: OUTPUT ENERGY PRECISION 4
Info: CROSSTERM ENERGY INCLUDED IN DIHEDRAL
Info: TIMING OUTPUT STEPS    50000
Info: PRESSURE OUTPUT STEPS  5000
Info: LANGEVIN DYNAMICS ACTIVE
Info: LANGEVIN TEMPERATURE   300
Info: LANGEVIN USING BBK INTEGRATOR
Info: LANGEVIN DAMPING COEFFICIENT IS 1 INVERSE PS
Info: LANGEVIN DYNAMICS APPLIED TO HYDROGENS
Info: LANGEVIN PISTON PRESSURE CONTROL ACTIVE
Info:        TARGET PRESSURE IS 1.01325 BAR
Info:     OSCILLATION PERIOD IS 50 FS
Info:             DECAY TIME IS 25 FS
Info:     PISTON TEMPERATURE IS 300 K
Info:       PRESSURE CONTROL IS GROUP-BASED
Info:    INITIAL STRAIN RATE IS 0 0 0
Info:       CELL FLUCTUATION IS ISOTROPIC
Info: PARTICLE MESH EWALD (PME) ACTIVE
Info: PME TOLERANCE               1e-06
Info: PME EWALD COEFFICIENT       0.348832
Info: PME INTERPOLATION ORDER     4
Info: PME GRID DIMENSIONS         44 44 40
Info: PME MAXIMUM GRID SPACING    1
Info: FULL ELECTROSTATIC EVALUATION FREQUENCY      2
Info: USING VERLET I (r-RESPA) MTS SCHEME.
Info: C1 SPLITTING OF LONG RANGE ELECTROSTATICS
Info: PLACING ATOMS IN PATCHES BY HYDROGEN GROUPS
Info: RIGID BONDS TO HYDROGEN : ALL
Info:         ERROR TOLERANCE : 1e-08
Info:          MAX ITERATIONS : 100
Info: RIGID WATER USING SETTLE ALGORITHM
Info: RANDOM NUMBER SEED     1741315912
Info: USE HYDROGEN BONDS?    NO
Info: Using AMBER format force field!
Info: AMBER PARM FILE        mobley_1659169.prmtop
Info: COORDINATE PDB         mobley_1659169.pdb
Info: Exclusions will be read from PARM file!
Info: SCNB (VDW SCALING)     2
Info: USING ARITHMETIC MEAN TO COMBINE L-J SIGMA PARAMETERS
Info: SUMMARY OF PARAMETERS:
Info: 7 BONDS
Info: 9 ANGLES
Info:   9 HARMONIC
Info:   0 COSINE-BASED
Info: 11 DIHEDRAL
Info: 0 IMPROPER
Info: 0 CROSSTERM
Info: 0 VDW
Info: 28 VDW_PAIRS
Info: 0 NBTHOLE_PAIRS
Info: STRUCTURE SUMMARY:
Info: 4674 ATOMS
Info: 4674 BONDS
Info: 28 ANGLES
Info: 44 DIHEDRALS
Info: 0 IMPROPERS
Info: 0 CROSSTERMS
Info: 4735 EXCLUSIONS
Info: 4668 RIGID BONDS
Info: 9354 DEGREES OF FREEDOM
Info: 1559 HYDROGEN GROUPS
Info: 3 ATOMS IN LARGEST HYDROGEN GROUP
Info: 1559 MIGRATION GROUPS
Info: 3 ATOMS IN LARGEST MIGRATION GROUP
Info: TOTAL MASS = 28066 amu
Info: TOTAL CHARGE = -0.000199959 e
Info: MASS DENSITY = 0.732205 g/cm^3
Info: ATOM DENSITY = 0.0734314 atoms/A^3
Info: ADDED 0 IMPLICIT EXCLUSIONS
Info: NONBONDED TABLE R-SQUARED SPACING: 0.0625
Info: NONBONDED TABLE SIZE: 705 POINTS
Info: REMOVING COM VELOCITY 0.0755168 -0.0082581 0.042512
TCL: Minimizing for 2000 steps
ETITLE: TS BOND ANGLE DIHED IMPRP ELECT VDW BOUNDARY MISC KINETIC TOTAL TEMP POTENTIAL TOTAL3 TEMPAVG PRESSURE GPRESSURE VOLUME PRESSAVG GPRESSAVG
ENERGY: 0 0.0657 1.3747 1.8391 0.0000 -14612.1254 1658.0704 0.0000 0.0000 0.0000 -12950.7756 0.0000 -12950.7756 -12950.7756 0.0000 11246.4637 -16225.4921 63651.2367 11246.4637 -16225.4921
ENERGY: 400 9.0369 5.6057 2.0569 0.0000 -19564.1702 2834.4236 0.0000 0.0000 0.0000 -16713.0472 0.0000 -16713.0472 -16713.0472 0.0000 15878.1497 15705.8152 63651.2367 15878.1497 15705.8152
ENERGY: 800 1.7397 0.9633 1.9045 0.0000 -20630.4952 3331.0945 0.0000 0.0000 0.0000 -17294.7933 0.0000 -17294.7933 -17294.7933 0.0000 18374.7191 18171.9400 63651.2367 18374.7191 18171.9400
ENERGY: 1200 0.7820 0.5114 1.9704 0.0000 -21105.2557 3564.0928 0.0000 0.0000 0.0000 -17537.8990 0.0000 -17537.8990 -17537.8990 0.0000 19581.2051 19228.3284 63651.2367 19581.2051 19228.3284
ENERGY: 1600 2.0296 1.1510 2.0189 0.0000 -21329.9023 3652.7218 0.0000 0.0000 0.0000 -17671.9810 0.0000 -17671.9810 -17671.9810 0.0000 20083.1300 19784.7639 63651.2367 20083.1300 19784.7639
ENERGY: 2000 1.3727 0.5592 2.0994 0.0000 -21489.5027 3739.2186 0.0000 0.0000 0.0000 -17746.2528 0.0000 -17746.2528 -17746.2528 0.0000 20543.1444 20301.2134 63651.2367 20543.1444 20301.2134
TCL: Exiting due to exit command.
Info: NAMD 3.0.1 for Linux-x86_64-multicore
Info: Please visit http://www.ks.uiuc.edu/Research/namd/
Info: for updates, documentation, and support information.
Info: Please cite Phillips et al., J. Chem. Phys. 153:044130 (2020) doi:10.1063/5.0014475
Info: in all publications reporting results obtained with NAMD.
Info: Based on Charm++/Converse 80000 for multicore-linux-x86_64-gcc
Info: Built Mon Oct 14 11:11:06 CDT 2024 by dhardy on athine.ks.uiuc.edu
Info: 1 NAMD  3.0.1  Linux-x86_64-multicore  16    k015  z5358697
Info: Running on 16 processors, 1 nodes, 1 physical nodes.
Info: CPU topology information available.
Info: Charm++/Converse parallel runtime startup completed at 0.00903275 s
Info: 1043.45 MB of memory in use based on /proc/self/stat
Info: Configuration file is mobley_1659169_equil.namd
Info: Working in the current directory /srv/scratch/z5358697/prod_prep/1659169
TCL: Running 25000 steps at 30 kelvin.
TCL: Suspending until startup complete.
Info: SIMULATION PARAMETERS:
Info: TIMESTEP               2
Info: NUMBER OF STEPS        0
Info: STEPS PER CYCLE        10
Info: PERIODIC CELL BASIS 1  40.176 0 0
Info: PERIODIC CELL BASIS 2  0 40.343 0
Info: PERIODIC CELL BASIS 3  0 0 39.271
Info: PERIODIC CELL CENTER   0 0 0
Info: WRAPPING WATERS AROUND PERIODIC BOUNDARIES ON OUTPUT.
Info: WRAPPING ALL CLUSTERS AROUND PERIODIC BOUNDARIES ON OUTPUT.
Info: FIRST LDB TIMESTEP     50
Info: LAST LDB TIMESTEP     -1
Info: HOM BACKGROUND SCALING 1
Info: PME BACKGROUND SCALING 1
Info: MIN ATOMS PER PATCH    40
Info: EMPTY PATCH LOAD       40 ATOMS
Info: INITIAL TEMPERATURE    300
Info: CENTER OF MASS MOVING INITIALLY? NO
Info: DIELECTRIC             1
Info: EXCLUDE                SCALED ONE-FOUR
Info: 1-4 ELECTROSTATICS SCALED BY 0.833333
Info: MODIFIED 1-4 VDW PARAMETERS WILL BE USED
Info: DCD FILENAME           mobley_1659169_equil.dcd
Info: DCD FREQUENCY          5000
Info: DCD FIRST STEP         5000
Info: DCD FILE WILL CONTAIN UNIT CELL DATA
Info: XST FILENAME           mobley_1659169_equil.xst
Info: XST FREQUENCY          5000
Info: NO VELOCITY DCD OUTPUT
Info: NO FORCE DCD OUTPUT
Info: OUTPUT FILENAME        mobley_1659169_equil
Info: BINARY OUTPUT FILES WILL BE USED
Info: RESTART FILENAME       mobley_1659169_equil.restart
Info: RESTART FREQUENCY      5000
Info: BINARY RESTART FILES WILL BE USED
Info: CUTOFF                 9
Info: PAIRLIST DISTANCE      11
Info: PAIRLIST SHRINK RATE   0.01
Info: PAIRLIST GROW RATE     0.01
Info: PAIRLIST TRIGGER       0.3
Info: PAIRLISTS PER CYCLE    2
Info: PAIRLISTS ENABLED
Info: MARGIN                 8
Info: HYDROGEN GROUP CUTOFF  2.5
Info: PATCH DIMENSION        21.5
Info: ENERGY OUTPUT STEPS    5000
Info: ENERGY EVALUATION STEPS    5000
Info: OUTPUT ENERGY PRECISION 4
Info: CROSSTERM ENERGY INCLUDED IN DIHEDRAL
Info: TIMING OUTPUT STEPS    50000
Info: PRESSURE OUTPUT STEPS  5000
Info: LANGEVIN DYNAMICS ACTIVE
Info: LANGEVIN TEMPERATURE   30
Info: LANGEVIN USING BBK INTEGRATOR
Info: LANGEVIN DAMPING COEFFICIENT IS 1 INVERSE PS
Info: LANGEVIN DYNAMICS APPLIED TO HYDROGENS
Info: LANGEVIN PISTON PRESSURE CONTROL ACTIVE
Info:        TARGET PRESSURE IS 1.01325 BAR
Info:     OSCILLATION PERIOD IS 50 FS
Info:             DECAY TIME IS 25 FS
Info:     PISTON TEMPERATURE IS 300 K
Info:       PRESSURE CONTROL IS GROUP-BASED
Info:    INITIAL STRAIN RATE IS 0 0 0
Info:       CELL FLUCTUATION IS ISOTROPIC
Info: PARTICLE MESH EWALD (PME) ACTIVE
Info: PME TOLERANCE               1e-06
Info: PME EWALD COEFFICIENT       0.348832
Info: PME INTERPOLATION ORDER     4
Info: PME GRID DIMENSIONS         44 44 40
Info: PME MAXIMUM GRID SPACING    1
Info: FULL ELECTROSTATIC EVALUATION FREQUENCY      2
Info: USING VERLET I (r-RESPA) MTS SCHEME.
Info: C1 SPLITTING OF LONG RANGE ELECTROSTATICS
Info: PLACING ATOMS IN PATCHES BY HYDROGEN GROUPS
Info: RIGID BONDS TO HYDROGEN : ALL
Info:         ERROR TOLERANCE : 1e-08
Info:          MAX ITERATIONS : 100
Info: RIGID WATER USING SETTLE ALGORITHM
Info: RANDOM NUMBER SEED     1741315931
Info: USE HYDROGEN BONDS?    NO
Info: Using AMBER format force field!
Info: AMBER PARM FILE        mobley_1659169.prmtop
Info: COORDINATE PDB         mobley_1659169.pdb
Info: Exclusions will be read from PARM file!
Info: SCNB (VDW SCALING)     2
Info: USING ARITHMETIC MEAN TO COMBINE L-J SIGMA PARAMETERS
Info: BINARY COORDINATES     mobley_1659169_min.coor
Info: SUMMARY OF PARAMETERS:
Info: 7 BONDS
Info: 9 ANGLES
Info:   9 HARMONIC
Info:   0 COSINE-BASED
Info: 11 DIHEDRAL
Info: 0 IMPROPER
Info: 0 CROSSTERM
Info: 0 VDW
Info: 28 VDW_PAIRS
Info: 0 NBTHOLE_PAIRS
Info: STRUCTURE SUMMARY:
Info: 4674 ATOMS
Info: 4674 BONDS
Info: 28 ANGLES
Info: 44 DIHEDRALS
Info: 0 IMPROPERS
Info: 0 CROSSTERMS
Info: 4735 EXCLUSIONS
Info: 4668 RIGID BONDS
Info: 9354 DEGREES OF FREEDOM
Info: 1559 HYDROGEN GROUPS
Info: 3 ATOMS IN LARGEST HYDROGEN GROUP
Info: 1559 MIGRATION GROUPS
Info: 3 ATOMS IN LARGEST MIGRATION GROUP
Info: TOTAL MASS = 28066 amu
Info: TOTAL CHARGE = -0.000199959 e
Info: MASS DENSITY = 0.732205 g/cm^3
Info: ATOM DENSITY = 0.0734314 atoms/A^3
Info: ADDED 0 IMPLICIT EXCLUSIONS
Info: NONBONDED TABLE R-SQUARED SPACING: 0.0625
Info: NONBONDED TABLE SIZE: 705 POINTS
Info: REMOVING COM VELOCITY 0.15659 -0.00902485 0.0946063
TCL: Running for 25000 steps
ETITLE: TS BOND ANGLE DIHED IMPRP ELECT VDW BOUNDARY MISC KINETIC TOTAL TEMP POTENTIAL TOTAL3 TEMPAVG PRESSURE GPRESSURE VOLUME PRESSAVG GPRESSAVG
ENERGY: 0 1.3727 0.5592 2.0994 0.0000 -21489.5026 3739.2186 0.0000 0.0000 2857.9573 -14888.2955 307.5026 -17746.2528 -14887.6471 307.5026 261.2173 302.0710 63651.2367 261.2173 302.0710
ENERGY: 5000 0.9581 1.2496 1.7692 0.0000 -22367.3740 3857.5840 0.0000 0.0000 280.9842 -18224.8288 30.2326 -18505.8130 -18224.0974 47.7126 -268.5343 -201.3436 45213.6734 -2.1858 -2.1332
ENERGY: 10000 0.7151 0.6605 1.9519 0.0000 -22473.6052 3935.7578 0.0000 0.0000 278.3011 -18256.2187 29.9439 -18534.5198 -18255.5023 30.2078 227.0119 287.7615 44792.8020 4.3004 4.3320
ENERGY: 15000 1.1339 0.6696 1.7844 0.0000 -22409.7685 3855.4069 0.0000 0.0000 286.7058 -18264.0679 30.8482 -18550.7737 -18263.2863 30.0941 -280.7167 -211.1952 44956.0368 8.8105 8.7923
ENERGY: 20000 0.4950 0.9115 1.8022 0.0000 -22587.0817 4009.2762 0.0000 0.0000 280.7123 -18293.8846 30.2033 -18574.5968 -18293.1170 30.1600 512.8568 611.7670 44656.8962 7.9561 8.1506
ENERGY: 25000 0.4493 1.1401 2.0328 0.0000 -22571.7799 3973.7648 0.0000 0.0000 274.9346 -18319.4584 29.5816 -18594.3929 -18318.5182 30.1272 258.8369 317.1446 44812.8183 -3.8990 -3.6877
TCL: Running 25000 steps at 60 kelvin.
TCL: Setting parameter langevinTemp to 60
TCL: Running for 25000 steps
ETITLE: TS BOND ANGLE DIHED IMPRP ELECT VDW BOUNDARY MISC KINETIC TOTAL TEMP POTENTIAL TOTAL3 TEMPAVG PRESSURE GPRESSURE VOLUME PRESSAVG GPRESSAVG
ENERGY: 25000 0.4493 1.1401 2.0328 0.0000 -22571.7799 3973.7648 0.0000 0.0000 274.7932 -18319.5997 29.5664 -18594.3929 -18319.0246 29.5664 259.7787 317.2583 44812.8183 259.7787 317.2583
ENERGY: 30000 1.4742 2.2871 1.8335 0.0000 -22191.5579 3847.0483 0.0000 0.0000 560.6169 -17778.2977 60.3197 -18338.9147 -17776.9023 57.2765 121.2665 200.1551 45141.3848 3.4526 3.4213
ENERGY: 35000 1.3789 1.7978 2.1074 0.0000 -22228.6748 3847.8394 0.0000 0.0000 567.9758 -17807.5756 61.1115 -18375.5514 -17806.1447 60.1881 102.4847 178.2915 45070.5519 8.1710 8.0442
ENERGY: 40000 0.7165 1.6375 1.9103 0.0000 -22371.4262 3979.2060 0.0000 0.0000 545.1138 -17842.8421 58.6516 -18387.9559 -17841.3933 60.3848 830.3735 887.7739 44949.2189 9.1087 8.6148
ENERGY: 45000 1.1831 1.1205 1.9460 0.0000 -22104.1264 3677.0123 0.0000 0.0000 557.0415 -17865.8229 59.9350 -18422.8645 -17863.9830 59.9782 -894.6377 -841.3386 45332.6072 4.6125 4.9109
ENERGY: 50000 1.1520 1.0206 2.1912 0.0000 -22406.2815 3981.8766 0.0000 0.0000 568.1207 -17851.9204 61.1271 -18420.0411 -17851.4568 60.0939 845.0892 909.1301 44770.5488 4.8120 4.5450
TCL: Running 25000 steps at 90 kelvin.
TCL: Setting parameter langevinTemp to 90
TCL: Running for 25000 steps
ETITLE: TS BOND ANGLE DIHED IMPRP ELECT VDW BOUNDARY MISC KINETIC TOTAL TEMP POTENTIAL TOTAL3 TEMPAVG PRESSURE GPRESSURE VOLUME PRESSAVG GPRESSAVG
ENERGY: 50000 1.1520 1.0206 2.1912 0.0000 -22406.2815 3981.8766 0.0000 0.0000 567.8339 -17852.2072 61.0962 -18420.0411 -17851.0909 61.0962 862.1597 908.5053 44770.5488 862.1597 908.5053
ENERGY: 55000 0.9129 2.5277 1.9833 0.0000 -21716.3629 3568.8415 0.0000 0.0000 841.2900 -17300.8075 90.5188 -18142.0975 -17298.3070 86.9793 -667.3404 -604.9376 45318.7496 1.7605 1.9153
ENERGY: 60000 1.0632 2.3230 2.1756 0.0000 -21881.2646 3714.3701 0.0000 0.0000 834.2956 -17327.0371 89.7662 -18161.3327 -17325.2630 90.3681 103.2022 143.3113 45060.2507 0.7190 0.6732
ENERGY: 65000 1.9610 2.7429 2.2450 0.0000 -21897.6503 3695.4171 0.0000 0.0000 842.8001 -17352.4843 90.6813 -18195.2843 -17349.8228 90.1823 -153.4079 -121.1598 45205.0815 5.8571 5.5420
ENERGY: 70000 0.5198 3.9430 2.5285 0.0000 -22011.2377 3776.0225 0.0000 0.0000 845.8134 -17382.4105 91.0055 -18228.2239 -17380.4136 90.2994 228.6305 297.2992 45040.1730 6.0695 6.0385
ENERGY: 75000 0.8410 2.2452 2.2787 0.0000 -22073.5423 3813.5050 0.0000 0.0000 838.3483 -17416.3241 90.2023 -18254.6724 -17414.0593 89.7702 400.2670 432.0363 44963.4364 1.8620 1.9625
TCL: Running 25000 steps at 120 kelvin.
TCL: Setting parameter langevinTemp to 120
TCL: Running for 25000 steps
ETITLE: TS BOND ANGLE DIHED IMPRP ELECT VDW BOUNDARY MISC KINETIC TOTAL TEMP POTENTIAL TOTAL3 TEMPAVG PRESSURE GPRESSURE VOLUME PRESSAVG GPRESSAVG
ENERGY: 75000 0.8410 2.2452 2.2787 0.0000 -22073.5423 3813.5050 0.0000 0.0000 837.9405 -17416.7319 90.1584 -18254.6724 -17414.9390 90.1584 387.6602 431.9227 44963.4364 387.6602 431.9227
ENERGY: 80000 1.1106 3.4235 2.5482 0.0000 -21512.7224 3579.7374 0.0000 0.0000 1132.5161 -16793.3866 121.8533 -17925.9027 -16789.4997 118.1975 -228.6348 -148.9002 45481.4816 3.2270 3.2647
ENERGY: 85000 0.7280 3.6193 2.4429 0.0000 -21614.4038 3659.6797 0.0000 0.0000 1104.8337 -16843.1001 118.8748 -17947.9339 -16839.7885 119.6344 271.7319 308.6034 45274.6707 1.9752 1.9967
ENERGY: 90000 1.1990 2.4809 2.3260 0.0000 -21633.4027 3669.8570 0.0000 0.0000 1112.4795 -16845.0604 119.6975 -17957.5399 -16842.9470 121.0664 261.8423 309.1789 45326.3299 6.1830 6.4228
ENERGY: 95000 0.3214 3.3366 2.1691 0.0000 -21649.4592 3627.1435 0.0000 0.0000 1112.6643 -16903.8242 119.7174 -18016.4886 -16900.6394 119.6257 -126.3167 -81.2906 45383.8354 -3.2630 -3.6309
ENERGY: 100000 0.2772 3.8856 2.0408 0.0000 -21733.3479 3716.0133 0.0000 0.0000 1109.9625 -16901.1685 119.4267 -18011.1310 -16897.4902 119.2900 386.3420 433.4904 45248.7999 1.8095 2.3679
TCL: Running 25000 steps at 150 kelvin.
TCL: Setting parameter langevinTemp to 150
TCL: Running for 25000 steps
ETITLE: TS BOND ANGLE DIHED IMPRP ELECT VDW BOUNDARY MISC KINETIC TOTAL TEMP POTENTIAL TOTAL3 TEMPAVG PRESSURE GPRESSURE VOLUME PRESSAVG GPRESSAVG
ENERGY: 100000 0.2772 3.8856 2.0408 0.0000 -21733.3479 3716.0133 0.0000 0.0000 1109.4081 -16901.7229 119.3670 -18011.1310 -16899.4071 119.3670 378.2265 433.8748 45248.7999 378.2265 433.8748
ENERGY: 105000 0.9528 4.6352 2.1624 0.0000 -21059.0904 3416.1837 0.0000 0.0000 1426.9112 -16208.2450 153.5288 -17635.1562 -16205.7352 147.3333 -366.0337 -353.0973 45861.9125 4.6013 4.7558
ENERGY: 110000 0.7420 3.7816 2.6548 0.0000 -21287.3163 3611.5020 0.0000 0.0000 1414.3129 -16254.3230 152.1733 -17668.6359 -16251.7294 150.1173 591.8821 667.3980 45511.2273 1.9186 1.8240
ENERGY: 115000 1.4726 3.1246 2.0395 0.0000 -21180.9205 3479.7866 0.0000 0.0000 1392.1761 -16302.3211 149.7915 -17694.4972 -16298.9806 150.9648 -197.9062 -155.8221 45859.2818 2.3575 2.3279
ENERGY: 120000 1.0019 2.4025 2.4592 0.0000 -21314.4500 3555.9353 0.0000 0.0000 1385.5142 -16367.1368 149.0747 -17752.6510 -16363.5545 151.0758 24.0629 77.7903 45671.8960 -2.5182 -2.6746
ENERGY: 125000 0.4689 2.0826 1.7781 0.0000 -21303.7298 3558.2221 0.0000 0.0000 1362.1717 -16379.0064 146.5632 -17741.1781 -16374.1860 149.6019 110.9020 198.6546 45588.2637 2.8452 2.7460
TCL: Running 50000 steps at 180 kelvin.
TCL: Setting parameter langevinTemp to 180
TCL: Running for 50000 steps
ETITLE: TS BOND ANGLE DIHED IMPRP ELECT VDW BOUNDARY MISC KINETIC TOTAL TEMP POTENTIAL TOTAL3 TEMPAVG PRESSURE GPRESSURE VOLUME PRESSAVG GPRESSAVG
ENERGY: 125000 0.4689 2.0826 1.7781 0.0000 -21303.7298 3558.2221 0.0000 0.0000 1361.4941 -16379.6840 146.4903 -17741.1781 -16376.8738 146.4903 133.1131 199.7413 45588.2637 133.1131 199.7413
ENERGY: 135000 1.6796 3.9958 2.2982 0.0000 -20708.3324 3374.1369 0.0000 0.0000 1721.4327 -15604.7892 185.2180 -17326.2219 -15599.0580 181.0309 -58.5244 4.4054 46129.4815 1.1081 0.8120
ENERGY: 145000 0.6832 3.7728 2.1451 0.0000 -20659.3007 3342.9452 0.0000 0.0000 1643.1086 -15666.6458 176.7906 -17309.7543 -15662.8194 179.3175 -215.8819 -186.5541 46108.5556 2.3524 1.5787
ENERGY: 155000 3.5501 3.6553 2.5509 0.0000 -20741.1901 3393.8595 0.0000 0.0000 1681.1580 -15656.4163 180.8846 -17337.5743 -15652.2074 179.6467 262.0910 318.2921 45419.2154 7.4965 7.7112
ENERGY: 165000 1.5292 4.9861 2.9811 0.0000 -20698.2423 3275.2905 0.0000 0.0000 1650.9014 -15762.5540 177.6291 -17413.4554 -15758.7427 179.9427 -567.2946 -517.6329 45787.0467 4.1474 3.9984
ENERGY: 175000 2.6949 2.7154 2.4725 0.0000 -20572.6245 3268.6952 0.0000 0.0000 1693.8015 -15602.2450 182.2450 -17296.0465 -15598.7560 181.4510 -213.8927 -183.6952 45506.1287 5.0851 5.3619
TCL: Running 50000 steps at 210 kelvin.
TCL: Setting parameter langevinTemp to 210
TCL: Running for 50000 steps
ETITLE: TS BOND ANGLE DIHED IMPRP ELECT VDW BOUNDARY MISC KINETIC TOTAL TEMP POTENTIAL TOTAL3 TEMPAVG PRESSURE GPRESSURE VOLUME PRESSAVG GPRESSAVG
ENERGY: 175000 2.6949 2.7154 2.4725 0.0000 -20572.6245 3268.6952 0.0000 0.0000 1692.9732 -15603.0733 182.1558 -17296.0465 -15599.6086 182.1558 -243.8906 -183.4888 45506.1287 -243.8906 -183.4888
ENERGY: 185000 1.1348 4.7513 2.4211 0.0000 -19753.4468 3083.0864 0.0000 0.0000 1977.8413 -14684.2120 212.8063 -16662.0533 -14678.8029 210.8597 524.8395 580.6631 45131.0504 -2.0294 -2.0571
ENERGY: 195000 1.2977 1.8673 2.4506 0.0000 -19561.2827 2918.0547 0.0000 0.0000 1948.9682 -14688.6443 209.6997 -16637.6124 -14681.4801 210.3642 -618.8612 -527.4567 45878.4553 4.0210 3.5230
ENERGY: 205000 5.5392 3.8766 2.5071 0.0000 -19625.6732 2984.3528 0.0000 0.0000 1937.7695 -14691.6280 208.4948 -16629.3975 -14687.0050 210.5539 -463.4335 -359.4125 46219.7474 0.3219 0.7340
ENERGY: 215000 1.3195 3.8831 2.3284 0.0000 -19750.5844 3063.9702 0.0000 0.0000 1951.0295 -14728.0536 209.9215 -16679.0831 -14723.2513 209.6929 222.4482 274.9898 45547.7857 5.9831 5.3343
ENERGY: 225000 1.6159 5.6553 2.1207 0.0000 -19602.9836 2999.1596 0.0000 0.0000 1947.4131 -14647.0189 209.5324 -16594.4321 -14643.1108 209.7195 -112.2782 -40.3349 45763.9125 4.5354 4.5097
TCL: Running 50000 steps at 240 kelvin.
TCL: Setting parameter langevinTemp to 240
TCL: Running for 50000 steps
ETITLE: TS BOND ANGLE DIHED IMPRP ELECT VDW BOUNDARY MISC KINETIC TOTAL TEMP POTENTIAL TOTAL3 TEMPAVG PRESSURE GPRESSURE VOLUME PRESSAVG GPRESSAVG
ENERGY: 225000 1.6159 5.6553 2.1207 0.0000 -19602.9836 2999.1596 0.0000 0.0000 1946.4648 -14647.9672 209.4303 -16594.4321 -14644.6999 209.4303 -106.3635 -40.5122 45763.9125 -106.3635 -40.5122
ENERGY: 235000 1.0510 5.0628 2.2121 0.0000 -18745.0185 2775.3331 0.0000 0.0000 2187.7272 -13773.6322 235.3890 -15961.3594 -13768.9406 240.3812 242.8262 278.4357 45942.5441 2.5140 2.4569
ENERGY: 245000 2.4726 5.0850 1.8765 0.0000 -18693.4014 2734.0828 0.0000 0.0000 2229.0363 -13720.8481 239.8337 -15949.8844 -13718.0563 239.1896 109.3100 154.0417 45789.2224 3.8269 4.2379
ENERGY: 255000 1.5270 5.8602 2.7398 0.0000 -18772.3233 2769.9306 0.0000 0.0000 2211.4708 -13780.7949 237.9437 -15992.2657 -13776.0493 241.6875 171.9089 252.5576 46002.6295 3.1710 3.7588
ENERGY: 265000 1.8581 5.0796 3.6030 0.0000 -18626.7139 2756.3597 0.0000 0.0000 2224.2886 -13635.5249 239.3228 -15859.8135 -13628.0221 239.3123 225.6034 352.5252 46090.8687 5.3818 5.1622
ENERGY: 275000 0.7567 5.5449 2.0318 0.0000 -18541.2269 2641.3449 0.0000 0.0000 2251.9127 -13639.6360 242.2951 -15891.5487 -13633.3550 240.4321 -377.6892 -317.7007 46284.9515 6.5782 6.6943
TCL: Running 50000 steps at 270 kelvin.
TCL: Setting parameter langevinTemp to 270
TCL: Running for 50000 steps
ETITLE: TS BOND ANGLE DIHED IMPRP ELECT VDW BOUNDARY MISC KINETIC TOTAL TEMP POTENTIAL TOTAL3 TEMPAVG PRESSURE GPRESSURE VOLUME PRESSAVG GPRESSAVG
ENERGY: 275000 0.7567 5.5449 2.0318 0.0000 -18541.2269 2641.3449 0.0000 0.0000 2250.7873 -13640.7614 242.1740 -15891.5487 -13636.9350 242.1740 -407.7525 -317.4286 46284.9515 -407.7525 -317.4286
ENERGY: 285000 2.7839 5.8058 2.1562 0.0000 -17804.9386 2540.5980 0.0000 0.0000 2539.2732 -12714.3214 273.2137 -15253.5946 -12709.0664 271.2191 392.8969 473.6982 46540.3442 7.4165 6.7877
ENERGY: 295000 1.5883 2.9801 1.9270 0.0000 -17668.1897 2498.2688 0.0000 0.0000 2523.3494 -12640.0760 271.5004 -15163.4255 -12636.9588 271.0495 270.7314 380.4851 46822.2477 0.4818 0.6469
ENERGY: 305000 4.0694 5.4380 3.0420 0.0000 -17727.2422 2446.5682 0.0000 0.0000 2519.3305 -12748.7940 271.0679 -15268.1245 -12744.0908 270.5821 -277.4183 -212.8160 46948.0801 2.4303 2.3570
ENERGY: 315000 2.1707 8.7345 2.7146 0.0000 -17730.2665 2491.6981 0.0000 0.0000 2531.4169 -12693.5317 272.3684 -15224.9486 -12686.5512 270.2650 224.0769 352.6970 46413.9940 -1.1237 -0.6470
ENERGY: 325000 1.4207 6.4053 1.9679 0.0000 -17750.8261 2548.2733 0.0000 0.0000 2516.8671 -12675.8918 270.8029 -15192.7589 -12671.5674 269.7451 554.7303 623.2374 46575.8306 4.7246 4.0094
TCL: Running 1000000 steps at 300 kelvin.
TCL: Setting parameter langevinTemp to 300
TCL: Running for 1000000 steps
ETITLE: TS BOND ANGLE DIHED IMPRP ELECT VDW BOUNDARY MISC KINETIC TOTAL TEMP POTENTIAL TOTAL3 TEMPAVG PRESSURE GPRESSURE VOLUME PRESSAVG GPRESSAVG
ENERGY: 325000 1.4207 6.4053 1.9679 0.0000 -17750.8261 2548.2733 0.0000 0.0000 2515.6366 -12677.1223 270.6705 -15192.7589 -12672.9781 270.6705 538.5661 624.9718 46575.8306 538.5661 624.9718
ENERGY: 525000 3.6653 12.1553 2.8598 0.0000 -16802.2868 2143.5954 0.0000 0.0000 2836.8324 -11803.1786 305.2296 -14640.0109 -11795.9297 301.4647 -865.1034 -732.0400 48222.2865 1.8764 2.4813
ENERGY: 725000 2.3375 7.3267 2.0763 0.0000 -16893.6959 2264.6308 0.0000 0.0000 2762.8829 -11854.4417 297.2730 -14617.3246 -11848.4540 301.7366 -81.3879 -15.4309 48287.8578 1.9687 1.7355
ENERGY: 925000 4.2284 8.5196 3.2073 0.0000 -16785.8017 2184.7653 0.0000 0.0000 2736.6515 -11848.4297 294.4506 -14585.0812 -11843.2199 300.2771 -315.7811 -235.9384 47770.8108 5.0997 5.1558
ENERGY: 1125000 0.8022 7.7045 2.3858 0.0000 -17099.6938 2310.9144 0.0000 0.0000 2875.5692 -11902.3178 309.3975 -14777.8870 -11896.3668 301.6304 28.9760 78.1824 47841.7119 -0.4345 -0.6938
ENERGY: 1325000 0.9330 8.4556 2.5937 0.0000 -16836.0976 2169.6544 0.0000 0.0000 2771.7705 -11882.6904 298.2293 -14654.4608 -11878.5043 297.8795 -454.8610 -359.2174 47748.3458 6.0330 5.5191
TCL: Exiting due to exit command.
