Info: SIMULATION PARAMETERS:
Info: TIMESTEP               2
Info: NUMBER OF STEPS        0
Info: STEPS PER CYCLE        10
Info: PERIODIC CELL BASIS 1  32.0494 0 0
Info: PERIODIC CELL BASIS 2  0 30.1227 0
Info: PERIODIC CELL BASIS 3  0 0 31.9769
Info: PERIODIC CELL CENTER   0 0 0
Info: WRAPPING WATERS AROUND PERIODIC BOUNDARIES ON OUTPUT.
Info: WRAPPING ALL CLUSTERS AROUND PERIODIC BOUNDARIES ON OUTPUT.
Info: FIRST LDB TIMESTEP     50
Info: LAST LDB TIMESTEP     -1
Info: HOM BACKGROUND SCALING 1
Info: PME BACKGROUND SCALING 1
Info: MIN ATOMS PER PATCH    40
Info: EMPTY PATCH LOAD       40 ATOMS
Info: VELOCITY FILE          mobley_2837389_equil.vel
Info: CENTER OF MASS MOVING INITIALLY? NO
Info: DIELECTRIC             1
Info: EXCLUDE                SCALED ONE-FOUR
Info: 1-4 ELECTROSTATICS SCALED BY 0.833333
Info: MODIFIED 1-4 VDW PARAMETERS WILL BE USED
Info: DCD FILENAME           mobley_2837389_prod.dcd
Info: DCD FREQUENCY          100000
Info: DCD FIRST STEP         100000
Info: DCD FILE WILL CONTAIN UNIT CELL DATA
Info: XST FILENAME           mobley_2837389_prod.xst
Info: XST FREQUENCY          100000
Info: NO VELOCITY DCD OUTPUT
Info: NO FORCE DCD OUTPUT
Info: OUTPUT FILENAME        mobley_2837389_prod
Info: BINARY OUTPUT FILES WILL BE USED
Info: RESTART FILENAME       mobley_2837389_prod.restart
Info: RESTART FREQUENCY      100000
Info: BINARY RESTART FILES WILL BE USED
Info: CUTOFF                 9
Info: PAIRLIST DISTANCE      11
Info: PAIRLIST SHRINK RATE   0.01
Info: PAIRLIST GROW RATE     0.01
Info: PAIRLIST TRIGGER       0.3
Info: PAIRLISTS PER CYCLE    2
Info: PAIRLISTS ENABLED
Info: MARGIN                 2
Info: HYDROGEN GROUP CUTOFF  2.5
Info: PATCH DIMENSION        15.5
Info: ENERGY OUTPUT STEPS    100000
Info: ENERGY EVALUATION STEPS    100000
Info: OUTPUT ENERGY PRECISION 4
Info: CROSSTERM ENERGY INCLUDED IN DIHEDRAL
Info: TIMING OUTPUT STEPS    1000000
Info: PRESSURE OUTPUT STEPS  100000
Info: ALCHEMICAL FEP ON
Info: FEP CURRENT LAMBDA VALUE     0
Info: FEP COMPARISON LAMBDA VALUE  0.05
Info: FEP INTRA-ALCHEMICAL NON-BONDED INTERACTIONS WILL BE RETAINED
Info: FEP INTRA-ALCHEMICAL BONDED INTERACTIONS WILL BE RETAINED
Info: FEP VDW SHIFTING COEFFICIENT 5
Info: FEP ELEC. ACTIVE FOR ANNIHILATED PARTICLES BETWEEN LAMBDA = 0 AND LAMBDA = 0.5
Info: FEP ELEC. ACTIVE FOR EXNIHILATED PARTICLES BETWEEN LAMBDA = 0.5 AND LAMBDA = 1
Info: FEP VDW ACTIVE FOR ANNIHILATED PARTICLES BETWEEN LAMBDA = 0 AND LAMBDA = 1
Info: FEP VDW ACTIVE FOR EXNIHILATED PARTICLES BETWEEN LAMBDA = 0 AND LAMBDA = 1
Info: FEP BOND ACTIVE FOR ANNIHILATED PARTICLES BETWEEN LAMBDA = 1 AND LAMBDA = 1
Info: FEP BOND ACTIVE FOR EXNIHILATED PARTICLES BETWEEN LAMBDA = 0 AND LAMBDA = 0
Info: LANGEVIN DYNAMICS ACTIVE
Info: LANGEVIN TEMPERATURE   300
Info: LANGEVIN USING BBK INTEGRATOR
Info: LANGEVIN DAMPING COEFFICIENT IS 1 INVERSE PS
Info: LANGEVIN DYNAMICS APPLIED TO HYDROGENS
Info: LANGEVIN PISTON PRESSURE CONTROL ACTIVE
Info:        TARGET PRESSURE IS 1.01325 BAR
Info:     OSCILLATION PERIOD IS 50 FS
Info:             DECAY TIME IS 25 FS
Info:     PISTON TEMPERATURE IS 300 K
Info:       PRESSURE CONTROL IS GROUP-BASED
Info:    INITIAL STRAIN RATE IS -0.000294784 -0.000294784 -0.000294784
Info:       CELL FLUCTUATION IS ISOTROPIC
Info: PARTICLE MESH EWALD (PME) ACTIVE
Info: PME TOLERANCE               1e-06
Info: PME EWALD COEFFICIENT       0.348832
Info: PME INTERPOLATION ORDER     4
Info: PME GRID DIMENSIONS         36 32 32
Info: PME MAXIMUM GRID SPACING    1
Info: PME CALCULATION WILL BE PERFORMED ON GPU
Info: FULL ELECTROSTATIC EVALUATION FREQUENCY      2
Info: USING VERLET I (r-RESPA) MTS SCHEME.
Info: C1 SPLITTING OF LONG RANGE ELECTROSTATICS
Info: PLACING ATOMS IN PATCHES BY HYDROGEN GROUPS
Info: RIGID BONDS TO HYDROGEN : ALL
Info:         ERROR TOLERANCE : 1e-08
Info:          MAX ITERATIONS : 100
Info: RIGID WATER USING SETTLE ALGORITHM
Info: RANDOM NUMBER SEED     1742110457
Info: USE HYDROGEN BONDS?    NO
Info: Using AMBER format force field!
Info: AMBER PARM FILE        mobley_2837389.prmtop
Info: COORDINATE PDB         mobley_2837389.pdb
Info: Exclusions will be read from PARM file!
Info: SCNB (VDW SCALING)     2
Info: USING ARITHMETIC MEAN TO COMBINE L-J SIGMA PARAMETERS
Info: BINARY COORDINATES     mobley_2837389_equil.coor
Info: SUMMARY OF PARAMETERS:
Info: 8 BONDS
Info: 8 ANGLES
Info:   8 HARMONIC
Info:   0 COSINE-BASED
Info: 3 DIHEDRAL
Info: 0 IMPROPER
Info: 0 CROSSTERM
Info: 0 VDW
Info: 28 VDW_PAIRS
Info: 0 NBTHOLE_PAIRS
Info: To read alchdata from file: mobley_2837389.pdb
Info: To read alchflag data from column: 5
Info: STRUCTURE SUMMARY:
Info: 2959 ATOMS
Info: 2959 BONDS
Info: 15 ANGLES
Info: 21 DIHEDRALS
Info: 0 IMPROPERS
Info: 0 CROSSTERMS
Info: 2989 EXCLUSIONS
Info: 2954 RIGID BONDS
Info: ALCH: 0 ATOMS TO DISAPPEAR IN FINAL STATE
Info: ALCH: 10 ATOMS TO APPEAR IN FINAL STATE
Info: 5923 DEGREES OF FREEDOM
Info: 988 HYDROGEN GROUPS
Info: 3 ATOMS IN LARGEST HYDROGEN GROUP
Info: 988 MIGRATION GROUPS
Info: 3 ATOMS IN LARGEST MIGRATION GROUP
Info: TOTAL MASS = 17776.8 amu
Info: TOTAL CHARGE = -0.000100017 e
Info: MASS DENSITY = 0.956231 g/cm^3
Info: ATOM DENSITY = 0.0958505 atoms/A^3
Info: ADDED 0 IMPLICIT EXCLUSIONS
Info: NONBONDED TABLE R-SQUARED SPACING: 0.0625
Info: NONBONDED TABLE SIZE: 705 POINTS
Info: REMOVING COM VELOCITY 0.0509763 0.094155 0.228481
Info: Use 3D box decompostion in PME FFT.
Info: Updated CUDA force table with 4096 elements.
Info: Updated CUDA LJ table with 7 x 7 elements.
Info: Found 11 unique exclusion lists needing 16 bytes
TCL: Running for 1500000 steps
ETITLE: TS BOND ANGLE DIHED IMPRP ELECT VDW BOUNDARY MISC KINETIC TOTAL TEMP POTENTIAL TOTALAVG TEMPAVG PRESSURE GPRESSURE VOLUME PRESSAVG GPRESSAVG
ENERGY: 0 0.7841 9.0765 0.9107 0.0000 -10678.1016 1383.3474 0.0000 0.0000 1731.1890 -7552.7940 294.1664 -9283.9829 -7552.7940 294.1664 -771.0061 -691.4699 30870.9987 -771.0061 -691.4699
ENERGY: 300000 2.8180 8.5650 1.3456 0.0000 -10705.0157 1409.6340 0.0000 0.0000 1776.4266 -7506.2265 301.8533 -9282.6531 -7494.3210 301.8930 -234.2925 -169.0665 30356.6131 22.7930 90.2544
ENERGY: 600000 4.0026 8.6033 1.8625 0.0000 -10681.8879 1381.2806 0.0000 0.0000 1778.3440 -7507.7950 302.1791 -9286.1390 -7504.8238 301.7435 -301.0428 -283.0908 30344.2472 -2.5673 74.7891
ENERGY: 900000 1.7259 6.5978 3.7560 0.0000 -10610.2076 1375.1193 0.0000 0.0000 1703.7388 -7519.2698 289.5021 -9223.0086 -7510.7068 299.3903 -475.5637 -387.5377 30268.1470 -59.1442 11.9945
ENERGY: 1200000 3.0929 7.3689 2.0184 0.0000 -10756.8159 1463.6652 0.0000 0.0000 1784.3133 -7496.3572 303.1934 -9280.6705 -7521.2532 299.8460 294.6929 391.8487 29986.0892 -122.7032 -48.7815
ENERGY: 1500000 0.9602 9.3769 1.8001 0.0000 -10830.1395 1489.7160 0.0000 0.0000 1712.3350 -7615.9514 290.9627 -9328.2863 -7519.5272 299.5680 256.0363 288.2456 30048.6130 -69.9552 -4.4546
TCL: Running FEP window   2: Lambda1 0.05   Lambda2 0.1    [dLambda 0.05  ]
TCL: Setting parameter firsttimestep to 0
TCL: Setting parameter alchLambda to 0.05
Info: NONBONDED TABLE R-SQUARED SPACING: 0.0625
Info: NONBONDED TABLE SIZE: 705 POINTS
TCL: Setting parameter alchLambda2 to 0.1
Info: NONBONDED TABLE R-SQUARED SPACING: 0.0625
Info: NONBONDED TABLE SIZE: 705 POINTS
TCL: Running for 1500000 steps
ETITLE: TS BOND ANGLE DIHED IMPRP ELECT VDW BOUNDARY MISC KINETIC TOTAL TEMP POTENTIAL TOTALAVG TEMPAVG PRESSURE GPRESSURE VOLUME PRESSAVG GPRESSAVG
ENERGY: 0 0.9602 9.3769 1.8001 0.0000 -10830.1394 1490.4318 0.0000 0.0000 1711.4727 -7616.0977 290.8162 -9327.5704 -7616.0977 290.8162 222.3686 291.9789 30048.6130 222.3686 291.9789
ENERGY: 300000 2.4378 6.7725 2.3405 0.0000 -10724.3665 1414.2129 0.0000 0.0000 1745.5887 -7553.0141 296.6133 -9298.6028 -7557.8559 296.0645 -444.9175 -329.8850 30466.0300 93.5018 180.0082
ENERGY: 600000 1.8571 8.0078 0.8444 0.0000 -10758.5728 1489.2235 0.0000 0.0000 1767.8457 -7490.7943 300.3952 -9258.6400 -7531.2104 297.9121 377.2623 447.8868 30398.2828 120.1885 189.5677
ENERGY: 900000 1.5590 8.0196 2.9218 0.0000 -10778.2156 1520.0114 0.0000 0.0000 1732.9710 -7512.7328 294.4692 -9245.7038 -7527.8704 297.5192 513.3446 569.9043 30406.2329 249.8152 309.3034
ENERGY: 1200000 0.5714 7.7301 2.5422 0.0000 -10732.6386 1460.7341 0.0000 0.0000 1744.6084 -7516.4524 296.4467 -9261.0608 -7520.5871 297.8509 196.3203 261.3277 30099.3356 252.0810 314.2304
ENERGY: 1500000 3.2027 7.7908 1.1631 0.0000 -10773.0488 1512.7475 0.0000 0.0000 1729.2220 -7518.9227 293.8322 -9248.1447 -7524.0354 297.0683 816.7765 910.3527 29759.7341 232.5661 292.0767
TCL: Running FEP window   3: Lambda1 0.1    Lambda2 0.15000000000000002 [dLambda 0.05000000000000002]
TCL: Setting parameter firsttimestep to 0
TCL: Setting parameter alchLambda to 0.1
Info: NONBONDED TABLE R-SQUARED SPACING: 0.0625
Info: NONBONDED TABLE SIZE: 705 POINTS
TCL: Setting parameter alchLambda2 to 0.15000000000000002
Info: NONBONDED TABLE R-SQUARED SPACING: 0.0625
Info: NONBONDED TABLE SIZE: 705 POINTS
TCL: Running for 1500000 steps
ETITLE: TS BOND ANGLE DIHED IMPRP ELECT VDW BOUNDARY MISC KINETIC TOTAL TEMP POTENTIAL TOTALAVG TEMPAVG PRESSURE GPRESSURE VOLUME PRESSAVG GPRESSAVG
ENERGY: 0 3.2027 7.7908 1.1631 0.0000 -10773.0486 1513.3342 0.0000 0.0000 1728.3243 -7519.2335 293.6797 -9247.5578 -7519.2335 293.6797 821.7882 910.6988 29759.7341 821.7882 910.6988
ENERGY: 200000 1.8810 8.0683 1.4184 0.0000 -10815.0610 1455.3737 0.0000 0.0000 1785.3635 -7562.9560 303.3719 -9348.3195 -7542.8765 299.3417 -73.3730 68.9271 30026.4098 198.0263 283.6759
ENERGY: 400000 1.2371 9.1329 0.9260 0.0000 -10725.4147 1481.5185 0.0000 0.0000 1824.8116 -7407.7886 310.0749 -9232.6002 -7504.8312 301.7616 407.4240 460.0134 30692.8175 95.7207 171.0619
ENERGY: 500000 2.6784 9.1711 4.1555 0.0000 -10700.2724 1444.0660 0.0000 0.0000 1749.7068 -7490.4945 297.3130 -9240.2013 -7502.4417 301.0202 279.3176 402.1651 29987.3556 126.3202 209.5791
ENERGY: 700000 3.7118 7.0106 2.3623 0.0000 -10779.7183 1456.3795 0.0000 0.0000 1711.5160 -7598.7381 290.8236 -9310.2541 -7513.4311 300.2385 -142.8614 -16.4786 30421.7912 27.6298 115.7191
ENERGY: 900000 1.2430 9.1438 1.1582 0.0000 -10696.2991 1399.7073 0.0000 0.0000 1730.6415 -7554.4053 294.0734 -9285.0468 -7517.4795 299.1324 -291.7064 -237.1866 30256.0053 -17.7528 68.1304
