Info: SIMULATION PARAMETERS:
Info: TIMESTEP               2
Info: NUMBER OF STEPS        0
Info: STEPS PER CYCLE        10
Info: PERIODIC CELL BASIS 1  41.123 0 0
Info: PERIODIC CELL BASIS 2  0 39.303 0
Info: PERIODIC CELL BASIS 3  0 0 42.009
Info: PERIODIC CELL CENTER   0 0 0
Info: WRAPPING WATERS AROUND PERIODIC BOUNDARIES ON OUTPUT.
Info: WRAPPING ALL CLUSTERS AROUND PERIODIC BOUNDARIES ON OUTPUT.
Info: FIRST LDB TIMESTEP     50
Info: LAST LDB TIMESTEP     -1
Info: HOM BACKGROUND SCALING 1
Info: PME BACKGROUND SCALING 1
Info: MIN ATOMS PER PATCH    40
Info: EMPTY PATCH LOAD       40 ATOMS
Info: INITIAL TEMPERATURE    300
Info: CENTER OF MASS MOVING INITIALLY? NO
Info: DIELECTRIC             1
Info: EXCLUDE                SCALED ONE-FOUR
Info: 1-4 ELECTROSTATICS SCALED BY 0.833333
Info: MODIFIED 1-4 VDW PARAMETERS WILL BE USED
Info: DCD FILENAME           mobley_5571660_min.dcd
Info: DCD FREQUENCY          5000
Info: DCD FIRST STEP         5000
Info: DCD FILE WILL CONTAIN UNIT CELL DATA
Info: XST FILENAME           mobley_5571660_min.xst
Info: XST FREQUENCY          5000
Info: NO VELOCITY DCD OUTPUT
Info: NO FORCE DCD OUTPUT
Info: OUTPUT FILENAME        mobley_5571660_min
Info: BINARY OUTPUT FILES WILL BE USED
Info: RESTART FILENAME       mobley_5571660_min.restart
Info: RESTART FREQUENCY      5000
Info: BINARY RESTART FILES WILL BE USED
Info: CUTOFF                 9
Info: PAIRLIST DISTANCE      11
Info: PAIRLIST SHRINK RATE   0.01
Info: PAIRLIST GROW RATE     0.01
Info: PAIRLIST TRIGGER       0.3
Info: PAIRLISTS PER CYCLE    2
Info: PAIRLISTS ENABLED
Info: MARGIN                 8
Info: HYDROGEN GROUP CUTOFF  2.5
Info: PATCH DIMENSION        21.5
Info: ENERGY OUTPUT STEPS    5000
Info: ENERGY EVALUATION STEPS    5000
Info: OUTPUT ENERGY PRECISION 4
Info: CROSSTERM ENERGY INCLUDED IN DIHEDRAL
Info: TIMING OUTPUT STEPS    50000
Info: PRESSURE OUTPUT STEPS  5000
Info: LANGEVIN DYNAMICS ACTIVE
Info: LANGEVIN TEMPERATURE   300
Info: LANGEVIN USING BBK INTEGRATOR
Info: LANGEVIN DAMPING COEFFICIENT IS 1 INVERSE PS
Info: LANGEVIN DYNAMICS APPLIED TO HYDROGENS
Info: LANGEVIN PISTON PRESSURE CONTROL ACTIVE
Info:        TARGET PRESSURE IS 1.01325 BAR
Info:     OSCILLATION PERIOD IS 50 FS
Info:             DECAY TIME IS 25 FS
Info:     PISTON TEMPERATURE IS 300 K
Info:       PRESSURE CONTROL IS GROUP-BASED
Info:    INITIAL STRAIN RATE IS 0 0 0
Info:       CELL FLUCTUATION IS ISOTROPIC
Info: PARTICLE MESH EWALD (PME) ACTIVE
Info: PME TOLERANCE               1e-06
Info: PME EWALD COEFFICIENT       0.348832
Info: PME INTERPOLATION ORDER     4
Info: PME GRID DIMENSIONS         44 40 44
Info: PME MAXIMUM GRID SPACING    1
Info: FULL ELECTROSTATIC EVALUATION FREQUENCY      2
Info: USING VERLET I (r-RESPA) MTS SCHEME.
Info: C1 SPLITTING OF LONG RANGE ELECTROSTATICS
Info: PLACING ATOMS IN PATCHES BY HYDROGEN GROUPS
Info: RIGID BONDS TO HYDROGEN : ALL
Info:         ERROR TOLERANCE : 1e-08
Info:          MAX ITERATIONS : 100
Info: RIGID WATER USING SETTLE ALGORITHM
Info: RANDOM NUMBER SEED     1741349233
Info: USE HYDROGEN BONDS?    NO
Info: Using AMBER format force field!
Info: AMBER PARM FILE        mobley_5571660.prmtop
Info: COORDINATE PDB         mobley_5571660.pdb
Info: Exclusions will be read from PARM file!
Info: SCNB (VDW SCALING)     2
Info: USING ARITHMETIC MEAN TO COMBINE L-J SIGMA PARAMETERS
Info: SUMMARY OF PARAMETERS:
Info: 8 BONDS
Info: 8 ANGLES
Info:   8 HARMONIC
Info:   0 COSINE-BASED
Info: 4 DIHEDRAL
Info: 0 IMPROPER
Info: 0 CROSSTERM
Info: 0 VDW
Info: 36 VDW_PAIRS
Info: 0 NBTHOLE_PAIRS
Info: STRUCTURE SUMMARY:
Info: 4904 ATOMS
Info: 4904 BONDS
Info: 33 ANGLES
Info: 45 DIHEDRALS
Info: 0 IMPROPERS
Info: 0 CROSSTERMS
Info: 4974 EXCLUSIONS
Info: 4895 RIGID BONDS
Info: 9817 DEGREES OF FREEDOM
Info: 1637 HYDROGEN GROUPS
Info: 4 ATOMS IN LARGEST HYDROGEN GROUP
Info: 1637 MIGRATION GROUPS
Info: 4 ATOMS IN LARGEST MIGRATION GROUP
Info: TOTAL MASS = 29451.2 amu
Info: TOTAL CHARGE = -9.99719e-05 e
Info: MASS DENSITY = 0.720294 g/cm^3
Info: ATOM DENSITY = 0.0722267 atoms/A^3
Info: ADDED 0 IMPLICIT EXCLUSIONS
Info: NONBONDED TABLE R-SQUARED SPACING: 0.0625
Info: NONBONDED TABLE SIZE: 705 POINTS
Info: REMOVING COM VELOCITY 0.0475755 0.0177734 0.0970682
TCL: Minimizing for 2000 steps
ETITLE: TS BOND ANGLE DIHED IMPRP ELECT VDW BOUNDARY MISC KINETIC TOTAL TEMP POTENTIAL TOTAL3 TEMPAVG PRESSURE GPRESSURE VOLUME PRESSAVG GPRESSAVG
ENERGY: 0 0.2621 1.0789 0.0256 0.0000 -15314.3483 1775.7507 0.0000 0.0000 0.0000 -13537.2310 0.0000 -13537.2310 -13537.2310 0.0000 11301.0358 -15561.4534 67897.3516 11301.0358 -15561.4534
ENERGY: 400 16.1917 10.9358 1.1673 0.0000 -20533.9475 2956.5643 0.0000 0.0000 0.0000 -17549.0884 0.0000 -17549.0884 -17549.0884 0.0000 15563.2062 15713.5973 67897.3516 15563.2062 15713.5973
ENERGY: 800 5.4723 1.1042 0.4972 0.0000 -21690.2031 3523.6433 0.0000 0.0000 0.0000 -18159.4862 0.0000 -18159.4862 -18159.4862 0.0000 18167.2156 18291.6344 67897.3516 18167.2156 18291.6344
ENERGY: 1200 0.5909 0.4766 0.6820 0.0000 -22097.3746 3688.7730 0.0000 0.0000 0.0000 -18406.8520 0.0000 -18406.8520 -18406.8520 0.0000 18941.2611 19048.5226 67897.3516 18941.2611 19048.5226
ENERGY: 1600 0.6189 0.2974 0.7980 0.0000 -22316.8484 3792.8357 0.0000 0.0000 0.0000 -18522.2984 0.0000 -18522.2984 -18522.2984 0.0000 19475.2172 19579.3039 67897.3516 19475.2172 19579.3039
ENERGY: 2000 0.4567 0.3324 0.8617 0.0000 -22478.0967 3857.7267 0.0000 0.0000 0.0000 -18618.7192 0.0000 -18618.7192 -18618.7192 0.0000 19806.0578 19894.6829 67897.3516 19806.0578 19894.6829
TCL: Exiting due to exit command.
Info: NAMD 3.0.1 for Linux-x86_64-multicore
Info: Please visit http://www.ks.uiuc.edu/Research/namd/
Info: for updates, documentation, and support information.
Info: Please cite Phillips et al., J. Chem. Phys. 153:044130 (2020) doi:10.1063/5.0014475
Info: in all publications reporting results obtained with NAMD.
Info: Based on Charm++/Converse 80000 for multicore-linux-x86_64-gcc
Info: Built Mon Oct 14 11:11:06 CDT 2024 by dhardy on athine.ks.uiuc.edu
Info: 1 NAMD  3.0.1  Linux-x86_64-multicore  16    k014  z5358697
Info: Running on 16 processors, 1 nodes, 1 physical nodes.
Info: CPU topology information available.
Info: Charm++/Converse parallel runtime startup completed at 0.00949568 s
Info: 1043.45 MB of memory in use based on /proc/self/stat
Info: Configuration file is mobley_5571660_equil.namd
Info: Working in the current directory /srv/scratch/z5358697/prod_prep_7/5571660
TCL: Running 25000 steps at 30 kelvin.
TCL: Suspending until startup complete.
Info: SIMULATION PARAMETERS:
Info: TIMESTEP               2
Info: NUMBER OF STEPS        0
Info: STEPS PER CYCLE        10
Info: PERIODIC CELL BASIS 1  41.123 0 0
Info: PERIODIC CELL BASIS 2  0 39.303 0
Info: PERIODIC CELL BASIS 3  0 0 42.009
Info: PERIODIC CELL CENTER   0 0 0
Info: WRAPPING WATERS AROUND PERIODIC BOUNDARIES ON OUTPUT.
Info: WRAPPING ALL CLUSTERS AROUND PERIODIC BOUNDARIES ON OUTPUT.
Info: FIRST LDB TIMESTEP     50
Info: LAST LDB TIMESTEP     -1
Info: HOM BACKGROUND SCALING 1
Info: PME BACKGROUND SCALING 1
Info: MIN ATOMS PER PATCH    40
Info: EMPTY PATCH LOAD       40 ATOMS
Info: INITIAL TEMPERATURE    300
Info: CENTER OF MASS MOVING INITIALLY? NO
Info: DIELECTRIC             1
Info: EXCLUDE                SCALED ONE-FOUR
Info: 1-4 ELECTROSTATICS SCALED BY 0.833333
Info: MODIFIED 1-4 VDW PARAMETERS WILL BE USED
Info: DCD FILENAME           mobley_5571660_equil.dcd
Info: DCD FREQUENCY          5000
Info: DCD FIRST STEP         5000
Info: DCD FILE WILL CONTAIN UNIT CELL DATA
Info: XST FILENAME           mobley_5571660_equil.xst
Info: XST FREQUENCY          5000
Info: NO VELOCITY DCD OUTPUT
Info: NO FORCE DCD OUTPUT
Info: OUTPUT FILENAME        mobley_5571660_equil
Info: BINARY OUTPUT FILES WILL BE USED
Info: RESTART FILENAME       mobley_5571660_equil.restart
Info: RESTART FREQUENCY      5000
Info: BINARY RESTART FILES WILL BE USED
Info: CUTOFF                 9
Info: PAIRLIST DISTANCE      11
Info: PAIRLIST SHRINK RATE   0.01
Info: PAIRLIST GROW RATE     0.01
Info: PAIRLIST TRIGGER       0.3
Info: PAIRLISTS PER CYCLE    2
Info: PAIRLISTS ENABLED
Info: MARGIN                 8
Info: HYDROGEN GROUP CUTOFF  2.5
Info: PATCH DIMENSION        21.5
Info: ENERGY OUTPUT STEPS    5000
Info: ENERGY EVALUATION STEPS    5000
Info: OUTPUT ENERGY PRECISION 4
Info: CROSSTERM ENERGY INCLUDED IN DIHEDRAL
Info: TIMING OUTPUT STEPS    50000
Info: PRESSURE OUTPUT STEPS  5000
Info: LANGEVIN DYNAMICS ACTIVE
Info: LANGEVIN TEMPERATURE   30
Info: LANGEVIN USING BBK INTEGRATOR
Info: LANGEVIN DAMPING COEFFICIENT IS 1 INVERSE PS
Info: LANGEVIN DYNAMICS APPLIED TO HYDROGENS
Info: LANGEVIN PISTON PRESSURE CONTROL ACTIVE
Info:        TARGET PRESSURE IS 1.01325 BAR
Info:     OSCILLATION PERIOD IS 50 FS
Info:             DECAY TIME IS 25 FS
Info:     PISTON TEMPERATURE IS 300 K
Info:       PRESSURE CONTROL IS GROUP-BASED
Info:    INITIAL STRAIN RATE IS 0 0 0
Info:       CELL FLUCTUATION IS ISOTROPIC
Info: PARTICLE MESH EWALD (PME) ACTIVE
Info: PME TOLERANCE               1e-06
Info: PME EWALD COEFFICIENT       0.348832
Info: PME INTERPOLATION ORDER     4
Info: PME GRID DIMENSIONS         44 40 44
Info: PME MAXIMUM GRID SPACING    1
Info: FULL ELECTROSTATIC EVALUATION FREQUENCY      2
Info: USING VERLET I (r-RESPA) MTS SCHEME.
Info: C1 SPLITTING OF LONG RANGE ELECTROSTATICS
Info: PLACING ATOMS IN PATCHES BY HYDROGEN GROUPS
Info: RIGID BONDS TO HYDROGEN : ALL
Info:         ERROR TOLERANCE : 1e-08
Info:          MAX ITERATIONS : 100
Info: RIGID WATER USING SETTLE ALGORITHM
Info: RANDOM NUMBER SEED     1741349248
Info: USE HYDROGEN BONDS?    NO
Info: Using AMBER format force field!
Info: AMBER PARM FILE        mobley_5571660.prmtop
Info: COORDINATE PDB         mobley_5571660.pdb
Info: Exclusions will be read from PARM file!
Info: SCNB (VDW SCALING)     2
Info: USING ARITHMETIC MEAN TO COMBINE L-J SIGMA PARAMETERS
Info: BINARY COORDINATES     mobley_5571660_min.coor
Info: SUMMARY OF PARAMETERS:
Info: 8 BONDS
Info: 8 ANGLES
Info:   8 HARMONIC
Info:   0 COSINE-BASED
Info: 4 DIHEDRAL
Info: 0 IMPROPER
Info: 0 CROSSTERM
Info: 0 VDW
Info: 36 VDW_PAIRS
Info: 0 NBTHOLE_PAIRS
Info: STRUCTURE SUMMARY:
Info: 4904 ATOMS
Info: 4904 BONDS
Info: 33 ANGLES
Info: 45 DIHEDRALS
Info: 0 IMPROPERS
Info: 0 CROSSTERMS
Info: 4974 EXCLUSIONS
Info: 4895 RIGID BONDS
Info: 9817 DEGREES OF FREEDOM
Info: 1637 HYDROGEN GROUPS
Info: 4 ATOMS IN LARGEST HYDROGEN GROUP
Info: 1637 MIGRATION GROUPS
Info: 4 ATOMS IN LARGEST MIGRATION GROUP
Info: TOTAL MASS = 29451.2 amu
Info: TOTAL CHARGE = -9.99719e-05 e
Info: MASS DENSITY = 0.720294 g/cm^3
Info: ATOM DENSITY = 0.0722267 atoms/A^3
Info: ADDED 0 IMPLICIT EXCLUSIONS
Info: NONBONDED TABLE R-SQUARED SPACING: 0.0625
Info: NONBONDED TABLE SIZE: 705 POINTS
Info: REMOVING COM VELOCITY 0.016564 0.00838734 0.0215716
TCL: Running for 25000 steps
ETITLE: TS BOND ANGLE DIHED IMPRP ELECT VDW BOUNDARY MISC KINETIC TOTAL TEMP POTENTIAL TOTAL3 TEMPAVG PRESSURE GPRESSURE VOLUME PRESSAVG GPRESSAVG
ENERGY: 0 0.4567 0.3324 0.8617 0.0000 -22478.0967 3857.7267 0.0000 0.0000 2851.9732 -15766.7460 292.3863 -18618.7192 -15766.1824 292.3863 35.3000 67.7734 67897.3516 35.3000 67.7734
ENERGY: 5000 0.2774 0.9741 2.1725 0.0000 -23568.1884 4156.1981 0.0000 0.0000 302.6105 -19105.9560 31.0238 -19408.5664 -19104.8023 47.1243 303.0663 350.9824 48604.5349 1.5404 1.5050
ENERGY: 10000 0.8047 1.0286 1.4363 0.0000 -23563.0582 4082.7650 0.0000 0.0000 292.9404 -19184.0833 30.0325 -19477.0237 -19183.4303 30.4682 -197.4270 -103.4206 48285.1042 1.0901 1.0290
ENERGY: 15000 0.4670 0.7734 1.8368 0.0000 -23501.3470 4007.4080 0.0000 0.0000 294.8576 -19196.0041 30.2290 -19490.8617 -19195.2669 29.9585 -575.8565 -509.9784 48430.5183 5.4541 5.4725
ENERGY: 20000 0.2077 1.6164 2.2478 0.0000 -23570.5906 4070.6338 0.0000 0.0000 299.5873 -19196.2975 30.7139 -19495.8848 -19195.3125 30.1398 -216.2466 -148.8465 48216.5414 2.9164 2.8942
ENERGY: 25000 0.5279 1.4824 1.7099 0.0000 -23570.2940 4067.9191 0.0000 0.0000 290.3621 -19208.2926 29.7681 -19498.6547 -19207.5539 30.2215 -247.9253 -187.3977 48245.0262 0.8250 0.8199
TCL: Running 25000 steps at 60 kelvin.
TCL: Setting parameter langevinTemp to 60
TCL: Running for 25000 steps
ETITLE: TS BOND ANGLE DIHED IMPRP ELECT VDW BOUNDARY MISC KINETIC TOTAL TEMP POTENTIAL TOTAL3 TEMPAVG PRESSURE GPRESSURE VOLUME PRESSAVG GPRESSAVG
ENERGY: 25000 0.5279 1.4824 1.7099 0.0000 -23570.2940 4067.9191 0.0000 0.0000 290.2132 -19208.4415 29.7529 -19498.6547 -19207.7847 29.7529 -255.9422 -187.4100 48245.0262 -255.9422 -187.4100
ENERGY: 30000 0.8495 2.1534 2.8356 0.0000 -23338.3216 4108.5486 0.0000 0.0000 594.3927 -18629.5418 60.9376 -19223.9345 -18628.6400 56.8241 635.8473 689.2815 48299.8894 -2.2060 -2.3737
ENERGY: 35000 0.6249 2.7718 2.7012 0.0000 -23185.2973 3921.5999 0.0000 0.0000 588.3058 -18669.2937 60.3135 -19257.5995 -18667.4038 59.9952 -393.2625 -335.4394 48531.1797 6.7778 6.7601
ENERGY: 40000 0.2117 1.3011 1.7021 0.0000 -23331.1465 4014.8503 0.0000 0.0000 582.1963 -18730.8850 59.6872 -19313.0813 -18729.4359 60.2337 4.7022 62.1489 48283.1396 -1.2442 -1.1578
ENERGY: 45000 0.8804 1.9525 1.7912 0.0000 -23261.6279 3946.1365 0.0000 0.0000 577.3967 -18733.4705 59.1951 -19310.8672 -18731.9373 59.9727 -322.8799 -253.4883 48284.5161 5.2242 5.2802
ENERGY: 50000 1.1635 2.6060 2.8797 0.0000 -23278.4852 3951.0967 0.0000 0.0000 580.9833 -18739.7559 59.5628 -19320.7392 -18738.0773 59.9131 -344.6234 -288.2552 48267.7930 -1.9227 -1.8867
TCL: Running 25000 steps at 90 kelvin.
TCL: Setting parameter langevinTemp to 90
TCL: Running for 25000 steps
ETITLE: TS BOND ANGLE DIHED IMPRP ELECT VDW BOUNDARY MISC KINETIC TOTAL TEMP POTENTIAL TOTAL3 TEMPAVG PRESSURE GPRESSURE VOLUME PRESSAVG GPRESSAVG
ENERGY: 50000 1.1635 2.6060 2.8797 0.0000 -23278.4852 3951.0967 0.0000 0.0000 580.7080 -18740.0312 59.5346 -19320.7392 -18738.5855 59.5346 -358.1644 -288.3216 48267.7930 -358.1644 -288.3216
ENERGY: 55000 2.7220 1.5714 2.2692 0.0000 -22885.0840 3847.0518 0.0000 0.0000 880.2785 -18151.1911 90.2468 -19031.4695 -18149.3556 87.3146 -172.7483 -126.1451 48430.5475 4.1421 4.3188
ENERGY: 60000 1.0200 2.6708 2.4584 0.0000 -22946.0004 3861.3036 0.0000 0.0000 892.1709 -18186.3767 91.4660 -19078.5476 -18184.6954 89.4818 -122.8085 -76.8539 48094.6930 2.1229 2.0723
ENERGY: 65000 0.9234 2.1094 2.4174 0.0000 -23035.5027 3949.7239 0.0000 0.0000 885.0106 -18195.3179 90.7319 -19080.3286 -18193.1410 90.3384 392.7853 450.6349 47905.2483 1.9909 1.7572
ENERGY: 70000 1.2237 2.0437 0.9622 0.0000 -23068.5995 3933.6313 0.0000 0.0000 895.2215 -18235.5171 91.7787 -19130.7385 -18232.0561 90.8638 160.0058 209.4247 47931.6785 1.5391 1.3102
ENERGY: 75000 0.7936 2.4980 2.4550 0.0000 -23076.6031 3924.3782 0.0000 0.0000 865.8305 -18280.6477 88.7656 -19146.4782 -18278.7054 90.5001 -63.8136 11.4284 48192.2423 9.1528 9.0577
TCL: Running 25000 steps at 120 kelvin.
TCL: Setting parameter langevinTemp to 120
TCL: Running for 25000 steps
ETITLE: TS BOND ANGLE DIHED IMPRP ELECT VDW BOUNDARY MISC KINETIC TOTAL TEMP POTENTIAL TOTAL3 TEMPAVG PRESSURE GPRESSURE VOLUME PRESSAVG GPRESSAVG
ENERGY: 75000 0.7936 2.4980 2.4550 0.0000 -23076.6031 3924.3782 0.0000 0.0000 865.3989 -18281.0793 88.7213 -19146.4782 -18279.3190 88.7213 -59.1806 11.7993 48192.2423 -59.1806 11.7993
ENERGY: 80000 1.4286 4.1615 2.9716 0.0000 -22505.5862 3629.6658 0.0000 0.0000 1172.3320 -17695.0267 120.1883 -18867.3587 -17691.4423 116.3546 -778.4452 -736.2543 48186.2575 6.2217 6.1822
ENERGY: 85000 1.4412 3.0909 1.7848 0.0000 -22782.8908 3870.3540 0.0000 0.0000 1185.8616 -17720.3584 121.5754 -18906.2200 -17716.0017 120.0576 499.4226 564.4737 47448.7195 6.5526 6.7997
ENERGY: 90000 0.7027 2.8413 3.3334 0.0000 -22635.7152 3719.5681 0.0000 0.0000 1166.0987 -17743.1710 119.5493 -18909.2697 -17739.5320 120.0569 -409.6156 -338.1228 47962.5876 3.8589 3.9218
ENERGY: 95000 0.5427 3.6905 2.7851 0.0000 -22653.0435 3724.4263 0.0000 0.0000 1204.7271 -17716.8718 123.5095 -18921.5989 -17714.5554 119.6696 -446.9020 -379.9769 47789.7590 4.8638 4.7874
ENERGY: 100000 1.4770 2.3551 2.4444 0.0000 -22589.8094 3655.6460 0.0000 0.0000 1199.7880 -17728.0988 123.0031 -18927.8868 -17724.6083 120.2888 -802.7237 -713.7255 47855.0088 7.1577 7.1254
TCL: Running 25000 steps at 150 kelvin.
TCL: Setting parameter langevinTemp to 150
TCL: Running for 25000 steps
ETITLE: TS BOND ANGLE DIHED IMPRP ELECT VDW BOUNDARY MISC KINETIC TOTAL TEMP POTENTIAL TOTAL3 TEMPAVG PRESSURE GPRESSURE VOLUME PRESSAVG GPRESSAVG
ENERGY: 100000 1.4770 2.3551 2.4444 0.0000 -22589.8094 3655.6460 0.0000 0.0000 1199.1789 -17728.7079 122.9407 -18927.8868 -17725.8920 122.9407 -776.5373 -713.4432 47855.0088 -776.5373 -713.4432
ENERGY: 105000 1.8380 3.5723 2.6921 0.0000 -22277.8286 3704.7062 0.0000 0.0000 1482.0314 -17082.9886 151.9389 -18565.0200 -17078.8411 147.6897 328.7999 372.6284 47706.5288 -1.0186 -0.8320
ENERGY: 110000 1.7138 2.8978 2.3433 0.0000 -22346.9420 3709.1347 0.0000 0.0000 1473.3304 -17157.5220 151.0469 -18630.8523 -17154.2217 150.0301 190.9620 208.2720 47801.1926 0.3338 0.0264
ENERGY: 115000 1.4750 5.0757 1.9522 0.0000 -22371.8828 3732.8369 0.0000 0.0000 1462.5645 -17167.9785 149.9431 -18630.5430 -17163.4276 149.7209 185.7023 222.7329 47961.1905 1.2481 1.1498
ENERGY: 120000 1.5831 3.9082 3.0554 0.0000 -22167.2537 3564.8450 0.0000 0.0000 1486.0385 -17107.8235 152.3497 -18593.8620 -17103.9636 150.8461 -649.0913 -588.8843 48343.5007 5.4585 5.3413
ENERGY: 125000 0.8861 3.0111 2.1249 0.0000 -22435.3754 3765.0648 0.0000 0.0000 1456.2317 -17208.0569 149.2939 -18664.2886 -17204.7139 150.8116 321.1694 372.6079 47977.6864 8.5097 8.6496
TCL: Running 50000 steps at 180 kelvin.
TCL: Setting parameter langevinTemp to 180
TCL: Running for 50000 steps
ETITLE: TS BOND ANGLE DIHED IMPRP ELECT VDW BOUNDARY MISC KINETIC TOTAL TEMP POTENTIAL TOTAL3 TEMPAVG PRESSURE GPRESSURE VOLUME PRESSAVG GPRESSAVG
ENERGY: 125000 0.8861 3.0111 2.1249 0.0000 -22435.3754 3765.0648 0.0000 0.0000 1455.5352 -17208.7533 149.2225 -18664.2886 -17206.1154 149.2225 315.2963 372.8479 47977.6864 315.2963 372.8479
ENERGY: 135000 3.0622 5.9558 3.1368 0.0000 -21868.3409 3633.4468 0.0000 0.0000 1757.6126 -16465.1267 180.1917 -18222.7393 -16462.0396 179.4672 636.8001 700.2575 48027.1285 1.6263 1.2240
ENERGY: 145000 2.7928 3.4177 1.9425 0.0000 -21720.3688 3528.6978 0.0000 0.0000 1750.5356 -16432.9823 179.4662 -18183.5180 -16428.8057 179.4135 234.9208 300.7609 47911.2740 1.4102 1.3012
ENERGY: 155000 3.8030 2.1115 1.8703 0.0000 -21879.6859 3519.2848 0.0000 0.0000 1772.4788 -16580.1375 181.7158 -18352.6163 -16576.6112 181.7837 -200.0319 -58.8423 47758.6186 5.4779 4.9980
ENERGY: 165000 1.6989 3.5725 2.1418 0.0000 -21710.3334 3523.4799 0.0000 0.0000 1754.2138 -16425.2266 179.8432 -18179.4403 -16421.3214 180.0895 161.4265 249.3605 47985.5135 4.0590 3.8170
ENERGY: 175000 2.4402 4.3845 3.2468 0.0000 -21936.9484 3656.1815 0.0000 0.0000 1762.5115 -16508.1838 180.6939 -18270.6954 -16505.8702 179.9286 655.0679 713.6048 47859.4307 2.2533 2.7683
TCL: Running 50000 steps at 210 kelvin.
TCL: Setting parameter langevinTemp to 210
TCL: Running for 50000 steps
ETITLE: TS BOND ANGLE DIHED IMPRP ELECT VDW BOUNDARY MISC KINETIC TOTAL TEMP POTENTIAL TOTAL3 TEMPAVG PRESSURE GPRESSURE VOLUME PRESSAVG GPRESSAVG
ENERGY: 175000 2.4402 4.3845 3.2468 0.0000 -21936.9484 3656.1815 0.0000 0.0000 1761.6284 -16509.0669 180.6034 -18270.6954 -16505.4828 180.6034 649.1152 712.8345 47859.4307 649.1152 712.8345
ENERGY: 185000 1.7407 5.4144 5.4437 0.0000 -20572.1400 3034.8029 0.0000 0.0000 2051.2729 -15473.4654 210.2979 -17524.7383 -15468.8453 209.1309 -845.3930 -748.3823 48289.1048 4.8269 5.1893
ENERGY: 195000 1.3728 4.8217 2.1110 0.0000 -20667.0584 3105.1051 0.0000 0.0000 2053.0578 -15500.5900 210.4809 -17553.6478 -15496.1666 210.1264 -403.4105 -314.8650 47970.3851 3.0374 3.4611
ENERGY: 205000 3.1451 5.5271 3.4250 0.0000 -20640.7299 3124.4634 0.0000 0.0000 2035.9550 -15468.2142 208.7275 -17504.1692 -15461.6494 209.7661 -354.7014 -262.9328 48259.0234 0.4964 0.4898
ENERGY: 215000 1.5590 10.0587 2.7516 0.0000 -20690.0405 3229.2852 0.0000 0.0000 2032.6809 -15413.7052 208.3919 -17446.3861 -15406.0911 210.6867 196.5537 300.1450 48344.4583 4.4411 4.4805
ENERGY: 225000 3.5453 4.0003 2.4927 0.0000 -20497.7024 3025.7408 0.0000 0.0000 2033.4071 -15428.5161 208.4663 -17461.9233 -15424.5017 209.0240 -640.8951 -605.7350 47953.0133 2.7239 2.6584
TCL: Running 50000 steps at 240 kelvin.
TCL: Setting parameter langevinTemp to 240
TCL: Running for 50000 steps
ETITLE: TS BOND ANGLE DIHED IMPRP ELECT VDW BOUNDARY MISC KINETIC TOTAL TEMP POTENTIAL TOTAL3 TEMPAVG PRESSURE GPRESSURE VOLUME PRESSAVG GPRESSAVG
ENERGY: 225000 3.5453 4.0003 2.4927 0.0000 -20497.7024 3025.7408 0.0000 0.0000 2032.3842 -15429.5391 208.3615 -17461.9233 -15425.4190 208.3615 -688.7936 -606.1018 47953.0133 -688.7936 -606.1018
ENERGY: 235000 1.1998 4.4945 2.7282 0.0000 -19673.8896 2907.5540 0.0000 0.0000 2329.8123 -14428.1008 238.8540 -16757.9132 -14422.0029 239.8752 53.1489 178.1333 48801.3179 0.9550 0.5132
ENERGY: 245000 1.6456 5.3225 4.6157 0.0000 -19642.3626 2869.9730 0.0000 0.0000 2350.0453 -14410.7605 240.9283 -16760.8057 -14405.8832 240.1465 29.9504 92.3188 48193.7347 -0.6296 -0.4922
ENERGY: 255000 3.6967 4.3420 3.0002 0.0000 -19634.6226 2945.7326 0.0000 0.0000 2381.0317 -14296.8194 244.1051 -16677.8511 -14290.0634 239.8164 548.8620 622.5431 48433.1159 0.6555 0.0418
ENERGY: 265000 2.9542 5.0732 3.4310 0.0000 -19586.0889 2806.2487 0.0000 0.0000 2291.0869 -14477.2950 234.8838 -16768.3819 -14474.1493 239.0903 -437.6453 -294.9459 48719.1368 4.3131 4.5707
ENERGY: 275000 3.9349 5.5768 5.0365 0.0000 -19567.0090 2805.8141 0.0000 0.0000 2344.8332 -14401.8136 240.3940 -16746.6468 -14395.0056 239.4043 -229.7348 -202.6350 48116.4398 -1.6612 -2.0241
TCL: Running 50000 steps at 270 kelvin.
TCL: Setting parameter langevinTemp to 270
TCL: Running for 50000 steps
ETITLE: TS BOND ANGLE DIHED IMPRP ELECT VDW BOUNDARY MISC KINETIC TOTAL TEMP POTENTIAL TOTAL3 TEMPAVG PRESSURE GPRESSURE VOLUME PRESSAVG GPRESSAVG
ENERGY: 275000 3.9349 5.5768 5.0365 0.0000 -19567.0090 2805.8141 0.0000 0.0000 2343.6851 -14402.9617 240.2762 -16746.6468 -14399.1514 240.2762 -281.1159 -202.2931 48116.4398 -281.1159 -202.2931
ENERGY: 285000 3.1481 6.8679 3.7432 0.0000 -18854.5242 2692.2733 0.0000 0.0000 2593.6027 -13554.8890 265.8980 -16148.4917 -13550.1314 271.1421 256.8202 302.9366 49334.0540 0.0043 0.0330
ENERGY: 295000 4.6306 4.2949 5.0660 0.0000 -18748.6386 2668.6682 0.0000 0.0000 2672.5511 -13393.4277 273.9918 -16065.9789 -13390.0101 269.6923 214.8152 273.8274 49367.7480 1.9453 1.8532
ENERGY: 305000 4.6672 3.9942 4.3277 0.0000 -18785.7147 2639.7444 0.0000 0.0000 2548.7416 -13584.2396 261.2988 -16132.9813 -13583.2282 268.6383 147.8154 165.0782 48607.1244 -2.0448 -2.1667
ENERGY: 315000 3.1365 5.7938 4.2560 0.0000 -18661.9484 2572.8978 0.0000 0.0000 2639.7831 -13436.0811 270.6324 -16075.8642 -13427.8150 270.7719 -68.4080 21.6955 48789.4726 -0.0466 0.2843
ENERGY: 325000 2.3138 6.7654 5.9387 0.0000 -18581.6803 2563.9210 0.0000 0.0000 2676.2508 -13326.4906 274.3711 -16002.7414 -13319.4418 272.3505 -22.1658 17.1812 49274.4636 1.8661 2.4827
TCL: Running 1000000 steps at 300 kelvin.
TCL: Setting parameter langevinTemp to 300
TCL: Running for 1000000 steps
ETITLE: TS BOND ANGLE DIHED IMPRP ELECT VDW BOUNDARY MISC KINETIC TOTAL TEMP POTENTIAL TOTAL3 TEMPAVG PRESSURE GPRESSURE VOLUME PRESSAVG GPRESSAVG
ENERGY: 325000 2.3138 6.7654 5.9387 0.0000 -18581.6803 2563.9210 0.0000 0.0000 2674.9399 -13327.8015 274.2367 -16002.7414 -13323.9866 274.2367 -68.3224 18.4984 49274.4636 -68.3224 18.4984
ENERGY: 525000 2.7994 4.1189 2.6480 0.0000 -17880.8465 2452.0107 0.0000 0.0000 2772.3585 -12646.9109 284.2242 -15419.2694 -12640.0626 300.5548 320.0850 427.0198 49903.5387 4.0751 4.5059
ENERGY: 725000 2.4035 8.7254 3.4819 0.0000 -17834.1234 2365.4892 0.0000 0.0000 2894.3801 -12559.6433 296.7339 -15454.0234 -12553.7524 300.7899 -380.3972 -307.7474 50694.3226 0.6060 0.1326
ENERGY: 925000 3.4249 5.7495 3.9211 0.0000 -17900.7923 2527.0539 0.0000 0.0000 2889.3195 -12471.3233 296.2151 -15360.6428 -12467.7931 296.7444 699.6675 784.5525 50349.8233 1.6375 1.7247
ENERGY: 1125000 1.8387 6.9852 5.3467 0.0000 -17964.9638 2516.1153 0.0000 0.0000 2911.9632 -12522.7146 298.5365 -15434.6778 -12517.8967 299.5102 536.4273 597.7976 50534.5570 0.2850 -0.1865
ENERGY: 1325000 3.0312 8.1829 4.5707 0.0000 -17817.0304 2314.6438 0.0000 0.0000 2913.7086 -12572.8931 298.7155 -15486.6018 -12571.2653 299.3447 -662.0863 -542.5456 50737.0106 2.3919 2.2104
TCL: Exiting due to exit command.
