Info: SIMULATION PARAMETERS:
Info: TIMESTEP               1
Info: NUMBER OF STEPS        0
Info: STEPS PER CYCLE        10
Info: PERIODIC CELL BASIS 1  30 0 0
Info: PERIODIC CELL BASIS 2  0 30 0
Info: PERIODIC CELL BASIS 3  0 0 30
Info: PERIODIC CELL CENTER   0 0 0
Info: WRAPPING ALL CLUSTERS AROUND PERIODIC BOUNDARIES ON OUTPUT.
Info: FIRST LDB TIMESTEP     50
Info: LAST LDB TIMESTEP     -1
Info: HOM BACKGROUND SCALING 1
Info: MIN ATOMS PER PATCH    40
Info: EMPTY PATCH LOAD       40 ATOMS
Info: INITIAL TEMPERATURE    298
Info: CENTER OF MASS MOVING INITIALLY? NO
Info: DIELECTRIC             1
Info: EXCLUDE                SCALED ONE-FOUR
Info: 1-4 ELECTROSTATICS SCALED BY 1
Info: MODIFIED 1-4 VDW PARAMETERS WILL BE USED
Info: DCD FILENAME           output.dcd
Info: DCD FREQUENCY          250
Info: DCD FIRST STEP         250
Info: DCD FILE WILL CONTAIN UNIT CELL DATA
Info: NO EXTENDED SYSTEM TRAJECTORY OUTPUT
Info: NO VELOCITY DCD OUTPUT
Info: NO FORCE DCD OUTPUT
Info: OUTPUT FILENAME        output
Info: BINARY OUTPUT FILES WILL BE USED
Info: NO RESTART FILE
Info: SWITCHING ACTIVE
Info: SWITCHING ON           10
Info: SWITCHING OFF          12
Info: PAIRLIST DISTANCE      14
Info: PAIRLIST SHRINK RATE   0.01
Info: PAIRLIST GROW RATE     0.01
Info: PAIRLIST TRIGGER       0.3
Info: PAIRLISTS PER CYCLE    2
Info: PAIRLISTS ENABLED
Info: MARGIN                 0
Info: HYDROGEN GROUP CUTOFF  2.5
Info: PATCH DIMENSION        16.5
Info: ENERGY OUTPUT STEPS    250
Info: ENERGY EVALUATION STEPS    250
Info: OUTPUT ENERGY PRECISION 4
Info: CROSSTERM ENERGY INCLUDED IN DIHEDRAL
Info: TIMING OUTPUT STEPS    250
Info: LANGEVIN DYNAMICS ACTIVE
Info: LANGEVIN TEMPERATURE   298
Info: LANGEVIN USING BBK INTEGRATOR
Info: LANGEVIN DAMPING COEFFICIENT IS 0.25 INVERSE PS
Info: LANGEVIN DYNAMICS NOT APPLIED TO HYDROGENS
Info: MULTILEVEL SUMMATION METHOD (MSM) FOR ELECTROSTATICS ACTIVE
Info: MSM WITH C1 CUBIC INTERPOLATION AND C2 TAYLOR SPLITTING
Info: FULL ELECTROSTATIC EVALUATION FREQUENCY      1
Info: USING VERLET I (r-RESPA) MTS SCHEME.
Info: C1 SPLITTING OF LONG RANGE ELECTROSTATICS
Info: PLACING ATOMS IN PATCHES BY HYDROGEN GROUPS
Info: RIGID BONDS TO HYDROGEN : ALL
Info:         ERROR TOLERANCE : 1e-08
Info:          MAX ITERATIONS : 100
Info: RIGID WATER USING SETTLE ALGORITHM
Info: RANDOM NUMBER SEED     1740232467
Info: USE HYDROGEN BONDS?    NO
Info: COORDINATE PDB         ionized.pdb
Info: STRUCTURE FILE         ionized.psf
Info: PARAMETER file: CHARMM format!
Info: PARAMETERS             par_all27_prot_lipid.inp
Info: USING ARITHMETIC MEAN TO COMBINE L-J SIGMA PARAMETERS
Info: SUMMARY OF PARAMETERS:
Info: 180 BONDS
Info: 447 ANGLES
Info: 566 DIHEDRAL
Info: 46 IMPROPER
Info: 6 CROSSTERM
Info: 119 VDW
Info: 0 VDW_PAIRS
Info: 0 NBTHOLE_PAIRS
Info: STRUCTURE SUMMARY:
Info: 2476 ATOMS
Info: 1650 BONDS
Info: 825 ANGLES
Info: 0 DIHEDRALS
Info: 0 IMPROPERS
Info: 0 CROSSTERMS
Info: 0 EXCLUSIONS
Info: 2475 RIGID BONDS
Info: 4953 DEGREES OF FREEDOM
Info: 826 HYDROGEN GROUPS
Info: 3 ATOMS IN LARGEST HYDROGEN GROUP
Info: 826 MIGRATION GROUPS
Info: 3 ATOMS IN LARGEST MIGRATION GROUP
Info: TOTAL MASS = 14885.7 amu
Info: TOTAL CHARGE = 1 e
Info: MASS DENSITY = 0.915513 g/cm^3
Info: ATOM DENSITY = 0.0917037 atoms/A^3
Info: ADDED 2475 IMPLICIT EXCLUSIONS
Info: NONBONDED TABLE R-SQUARED SPACING: 0.0625
Info: NONBONDED TABLE SIZE: 769 POINTS
Info: REMOVING COM VELOCITY -0.0212716 0.00938823 0.106879
Info: MSM using C1 cubic interpolation
Info: MSM using C2 Taylor splitting function
Info: MSM block size decomposition along X is 8 grid points
Info: MSM block size decomposition along Y is 8 grid points
Info: MSM block size decomposition along Z is 8 grid points
Info: MSM grid spacing along X is 2.5 A
Info: MSM grid spacing along Y is 2.5 A
Info: MSM grid spacing along Z is 2.5 A
Info: MSM using 3 levels
Info:     level 0:  [0..11] x [0..11] x [0..11]
Info:     level 1:  [0..5] x [0..5] x [0..5]
Info:     level 2:  [0..2] x [0..2] x [0..2]
Info: MSM finished calculating stencils
Info: MSM finished creating map for grid levels
Info: MSM finished creating map for patches
Info: MSM has 9 interpolation / anterpolation objects (one per patch)
Info: MSM grid level 0 decomposed into 8 blocks ( 2 x 2 x 2 )
Info: MSM grid level 1 decomposed into 1 block ( 1 x 1 x 1 )
Info: MSM grid level 2 decomposed into 1 block ( 1 x 1 x 1 )
Info: MSM grid cutoff calculation decomposed into 783 work objects
TCL: Minimizing for 100 steps
ETITLE: TS BOND ANGLE DIHED IMPRP ELECT VDW BOUNDARY MISC KINETIC TOTAL TEMP POTENTIAL TOTAL3 TEMPAVG PRESSURE GPRESSURE VOLUME PRESSAVG GPRESSAVG
ENERGY: 0 0.0000 0.0000 0.0000 0.0000 -7348.6495 6353.7252 0.0000 0.0000 0.0000 -994.9243 0.0000 -994.9243 -994.9243 0.0000 75204.0846 46356.0498 27000.0000 75204.0846 46356.0498
ENERGY: 20 0.0000 0.0000 0.0000 0.0000 -8744.5976 644.7588 0.0000 0.0000 0.0000 -8099.8388 0.0000 -8099.8388 -8099.8388 0.0000 14286.6721 -2608.4248 27000.0000 14286.6721 -2608.4248
ENERGY: 40 0.0000 0.0000 0.0000 0.0000 -9255.3677 673.7887 0.0000 0.0000 0.0000 -8581.5790 0.0000 -8581.5790 -8581.5790 0.0000 14306.7124 -3612.4724 27000.0000 14306.7124 -3612.4724
ENERGY: 60 0.0000 0.0000 0.0000 0.0000 -9570.7010 738.1056 0.0000 0.0000 0.0000 -8832.5954 0.0000 -8832.5954 -8832.5954 0.0000 14889.9953 -3661.0805 27000.0000 14889.9953 -3661.0805
ENERGY: 80 0.0000 0.0000 0.0000 0.0000 -9709.9660 782.3937 0.0000 0.0000 0.0000 -8927.5723 0.0000 -8927.5723 -8927.5723 0.0000 15330.9996 -3519.5152 27000.0000 15330.9996 -3519.5152
ENERGY: 100 0.0000 0.0000 0.0000 0.0000 -9872.5732 824.9199 0.0000 0.0000 0.0000 -9047.6533 0.0000 -9047.6533 -9047.6533 0.0000 15760.0105 15681.6117 27000.0000 15760.0105 15681.6117
TCL: Running for 50000 steps
ETITLE: TS BOND ANGLE DIHED IMPRP ELECT VDW BOUNDARY MISC KINETIC TOTAL TEMP POTENTIAL TOTAL3 TEMPAVG PRESSURE GPRESSURE VOLUME PRESSAVG GPRESSAVG
ENERGY: 250 0.0000 0.0000 0.0000 0.0000 -9364.5439 872.2345 0.0000 0.0000 954.6319 -7537.6775 193.9805 -8492.3094 -7537.3781 190.5932 -2897.8429 -2891.6517 27000.0000 -2636.2686 -2636.3234
ENERGY: 10250 0.0000 0.0000 0.0000 0.0000 -9161.4927 841.3233 0.0000 0.0000 1285.1246 -7035.0449 261.1363 -8320.1694 -7034.2982 259.9573 -2451.8756 -2446.2418 27000.0000 -2077.6116 -2078.2290
ENERGY: 20250 0.0000 0.0000 0.0000 0.0000 -9150.7349 960.3264 0.0000 0.0000 1362.8984 -6827.5101 276.9399 -8190.4086 -6827.1159 277.8505 -877.5876 -867.9273 27000.0000 -1494.9766 -1494.7728
ENERGY: 30000 0.0000 0.0000 0.0000 0.0000 -8952.6921 917.4672 0.0000 0.0000 1444.5579 -6590.6669 293.5331 -8035.2248 -6589.7438 294.7690 -676.2649 -681.3877 27000.0000 -976.4637 -976.2623
ENERGY: 40000 0.0000 0.0000 0.0000 0.0000 -8808.3802 858.2962 0.0000 0.0000 1416.4983 -6533.5857 287.8314 -7950.0840 -6532.4987 295.2163 -995.5319 -990.7674 27000.0000 -1276.8381 -1276.4962
ENERGY: 50000 0.0000 0.0000 0.0000 0.0000 -8776.9703 831.0952 0.0000 0.0000 1472.9178 -6472.9573 299.2958 -7945.8751 -6472.4980 300.7305 -1191.2362 -1199.2982 27000.0000 -837.6971 -837.9759
