Info: SIMULATION PARAMETERS:
Info: TIMESTEP               2
Info: NUMBER OF STEPS        0
Info: STEPS PER CYCLE        10
Info: PERIODIC CELL BASIS 1  34.986 0 0
Info: PERIODIC CELL BASIS 2  0 35.411 0
Info: PERIODIC CELL BASIS 3  0 0 35.644
Info: PERIODIC CELL CENTER   0 0 0
Info: WRAPPING WATERS AROUND PERIODIC BOUNDARIES ON OUTPUT.
Info: WRAPPING ALL CLUSTERS AROUND PERIODIC BOUNDARIES ON OUTPUT.
Info: FIRST LDB TIMESTEP     50
Info: LAST LDB TIMESTEP     -1
Info: HOM BACKGROUND SCALING 1
Info: PME BACKGROUND SCALING 1
Info: MIN ATOMS PER PATCH    40
Info: EMPTY PATCH LOAD       40 ATOMS
Info: INITIAL TEMPERATURE    300
Info: CENTER OF MASS MOVING INITIALLY? NO
Info: DIELECTRIC             1
Info: EXCLUDE                SCALED ONE-FOUR
Info: 1-4 ELECTROSTATICS SCALED BY 0.833333
Info: MODIFIED 1-4 VDW PARAMETERS WILL BE USED
Info: DCD FILENAME           mobley_1328465_equil.dcd
Info: DCD FREQUENCY          100000
Info: DCD FIRST STEP         100000
Info: DCD FILE WILL CONTAIN UNIT CELL DATA
Info: XST FILENAME           mobley_1328465_equil.xst
Info: XST FREQUENCY          100000
Info: NO VELOCITY DCD OUTPUT
Info: NO FORCE DCD OUTPUT
Info: OUTPUT FILENAME        mobley_1328465_equil
Info: BINARY OUTPUT FILES WILL BE USED
Info: RESTART FILENAME       mobley_1328465_equil.restart
Info: RESTART FREQUENCY      100000
Info: BINARY RESTART FILES WILL BE USED
Info: CUTOFF                 9
Info: PAIRLIST DISTANCE      11
Info: PAIRLIST SHRINK RATE   0.01
Info: PAIRLIST GROW RATE     0.01
Info: PAIRLIST TRIGGER       0.3
Info: PAIRLISTS PER CYCLE    2
Info: PAIRLISTS ENABLED
Info: MARGIN                 8
Info: HYDROGEN GROUP CUTOFF  2.5
Info: PATCH DIMENSION        21.5
Info: ENERGY OUTPUT STEPS    100000
Info: ENERGY EVALUATION STEPS    100000
Info: OUTPUT ENERGY PRECISION 4
Info: CROSSTERM ENERGY INCLUDED IN DIHEDRAL
Info: TIMING OUTPUT STEPS    1000000
Info: PRESSURE OUTPUT STEPS  100000
Info: LANGEVIN DYNAMICS ACTIVE
Info: LANGEVIN TEMPERATURE   30
Info: LANGEVIN USING BBK INTEGRATOR
Info: LANGEVIN DAMPING COEFFICIENT IS 1 INVERSE PS
Info: LANGEVIN DYNAMICS APPLIED TO HYDROGENS
Info: LANGEVIN PISTON PRESSURE CONTROL ACTIVE
Info:        TARGET PRESSURE IS 1.01325 BAR
Info:     OSCILLATION PERIOD IS 50 FS
Info:             DECAY TIME IS 25 FS
Info:     PISTON TEMPERATURE IS 300 K
Info:       PRESSURE CONTROL IS GROUP-BASED
Info:    INITIAL STRAIN RATE IS 0 0 0
Info:       CELL FLUCTUATION IS ISOTROPIC
Info: PARTICLE MESH EWALD (PME) ACTIVE
Info: PME TOLERANCE               1e-06
Info: PME EWALD COEFFICIENT       0.348832
Info: PME INTERPOLATION ORDER     4
Info: PME GRID DIMENSIONS         36 36 36
Info: PME MAXIMUM GRID SPACING    1
Info: FULL ELECTROSTATIC EVALUATION FREQUENCY      2
Info: USING VERLET I (r-RESPA) MTS SCHEME.
Info: C1 SPLITTING OF LONG RANGE ELECTROSTATICS
Info: PLACING ATOMS IN PATCHES BY HYDROGEN GROUPS
Info: RIGID BONDS TO HYDROGEN : ALL
Info:         ERROR TOLERANCE : 1e-08
Info:          MAX ITERATIONS : 100
Info: RIGID WATER USING SETTLE ALGORITHM
Info: RANDOM NUMBER SEED     1742329667
Info: USE HYDROGEN BONDS?    NO
Info: Using AMBER format force field!
Info: AMBER PARM FILE        mobley_1328465.prmtop
Info: COORDINATE PDB         mobley_1328465.pdb
Info: Exclusions will be read from PARM file!
Info: SCNB (VDW SCALING)     2
Info: USING ARITHMETIC MEAN TO COMBINE L-J SIGMA PARAMETERS
Info: BINARY COORDINATES     mobley_1328465_min.coor
Info: SUMMARY OF PARAMETERS:
Info: 6 BONDS
Info: 7 ANGLES
Info:   7 HARMONIC
Info:   0 COSINE-BASED
Info: 4 DIHEDRAL
Info: 0 IMPROPER
Info: 0 CROSSTERM
Info: 0 VDW
Info: 21 VDW_PAIRS
Info: 0 NBTHOLE_PAIRS
Info: STRUCTURE SUMMARY:
Info: 2945 ATOMS
Info: 2944 BONDS
Info: 12 ANGLES
Info: 13 DIHEDRALS
Info: 0 IMPROPERS
Info: 0 CROSSTERMS
Info: 2965 EXCLUSIONS
Info: 2940 RIGID BONDS
Info: 5895 DEGREES OF FREEDOM
Info: 984 HYDROGEN GROUPS
Info: 3 ATOMS IN LARGEST HYDROGEN GROUP
Info: 984 MIGRATION GROUPS
Info: 3 ATOMS IN LARGEST MIGRATION GROUP
Info: TOTAL MASS = 17771.1 amu
Info: TOTAL CHARGE = -1.86265e-08 e
Info: MASS DENSITY = 0.668273 g/cm^3
Info: ATOM DENSITY = 0.0666909 atoms/A^3
Info: ADDED 0 IMPLICIT EXCLUSIONS
Info: NONBONDED TABLE R-SQUARED SPACING: 0.0625
Info: NONBONDED TABLE SIZE: 705 POINTS
Info: REMOVING COM VELOCITY 0.12584 -0.119019 0.0119107
TCL: Running for 100000 steps
ETITLE: TS BOND ANGLE DIHED IMPRP ELECT VDW BOUNDARY MISC KINETIC TOTAL TEMP POTENTIAL TOTAL3 TEMPAVG PRESSURE GPRESSURE VOLUME PRESSAVG GPRESSAVG
ENERGY: 0 0.0292 0.2010 0.7909 0.0000 -13694.1718 2437.1176 0.0000 0.0000 1720.1525 -9535.8806 293.6794 -11256.0331 -9535.5506 293.6794 633.6615 669.5099 44158.9683 633.6615 669.5099
ENERGY: 100000 0.3145 0.5742 0.7773 0.0000 -14264.2785 2534.6269 0.0000 0.0000 177.3591 -11550.6265 30.2803 -11727.9857 -11549.9462 30.8600 770.4873 829.0319 28628.6948 3.9299 3.9295
TCL: Running 100000 steps at 60 kelvin.
TCL: Setting parameter langevinTemp to 60
TCL: Running for 100000 steps
ETITLE: TS BOND ANGLE DIHED IMPRP ELECT VDW BOUNDARY MISC KINETIC TOTAL TEMP POTENTIAL TOTAL3 TEMPAVG PRESSURE GPRESSURE VOLUME PRESSAVG GPRESSAVG
ENERGY: 100000 0.3145 0.5742 0.7773 0.0000 -14264.2785 2534.6269 0.0000 0.0000 177.2719 -11550.7138 30.2654 -11727.9857 -11550.3616 30.2654 767.7282 829.3827 28628.6948 767.7282 829.3827
ENERGY: 200000 0.4466 1.4988 0.7708 0.0000 -14097.0654 2407.7747 0.0000 0.0000 342.2886 -11344.2860 58.4385 -11686.5745 -11343.0752 59.9547 -276.4538 -215.2624 28991.6067 4.8944 4.9515
TCL: Running 100000 steps at 90 kelvin.
TCL: Setting parameter langevinTemp to 90
TCL: Running for 100000 steps
ETITLE: TS BOND ANGLE DIHED IMPRP ELECT VDW BOUNDARY MISC KINETIC TOTAL TEMP POTENTIAL TOTAL3 TEMPAVG PRESSURE GPRESSURE VOLUME PRESSAVG GPRESSAVG
ENERGY: 200000 0.4466 1.4988 0.7708 0.0000 -14097.0654 2407.7747 0.0000 0.0000 342.1183 -11344.4562 58.4094 -11686.5745 -11343.7793 58.4094 -273.3417 -214.9711 28991.6067 -273.3417 -214.9711
ENERGY: 300000 0.3968 1.3730 0.8137 0.0000 -13893.8217 2310.0746 0.0000 0.0000 543.0013 -11038.1622 92.7059 -11581.1635 -11036.7680 90.0119 -628.3532 -584.9476 29016.0722 4.0822 4.0905
TCL: Running 100000 steps at 120 kelvin.
TCL: Setting parameter langevinTemp to 120
TCL: Running for 100000 steps
ETITLE: TS BOND ANGLE DIHED IMPRP ELECT VDW BOUNDARY MISC KINETIC TOTAL TEMP POTENTIAL TOTAL3 TEMPAVG PRESSURE GPRESSURE VOLUME PRESSAVG GPRESSAVG
ENERGY: 300000 0.3968 1.3730 0.8137 0.0000 -13893.8217 2310.0746 0.0000 0.0000 542.7307 -11038.4328 92.6597 -11581.1635 -11037.1342 92.6597 -645.9961 -585.3675 29016.0722 -645.9961 -585.3675
ENERGY: 400000 0.3349 1.8965 1.0199 0.0000 -13781.8531 2325.9604 0.0000 0.0000 695.7194 -10756.9221 118.7793 -11452.6415 -10754.5696 119.9403 -88.3184 10.7922 28820.1038 4.0446 4.0921
TCL: Running 100000 steps at 150 kelvin.
TCL: Setting parameter langevinTemp to 150
TCL: Running for 100000 steps
ETITLE: TS BOND ANGLE DIHED IMPRP ELECT VDW BOUNDARY MISC KINETIC TOTAL TEMP POTENTIAL TOTAL3 TEMPAVG PRESSURE GPRESSURE VOLUME PRESSAVG GPRESSAVG
ENERGY: 400000 0.3349 1.8965 1.0199 0.0000 -13781.8531 2325.9604 0.0000 0.0000 695.3791 -10757.2624 118.7212 -11452.6415 -10756.2120 118.7212 -37.3628 11.7426 28820.1038 -37.3628 11.7426
ENERGY: 500000 0.3360 1.7502 0.7718 0.0000 -13444.2377 2171.6264 0.0000 0.0000 899.0515 -10370.7018 153.4939 -11269.7533 -10369.1567 150.0890 -765.7861 -707.1521 29249.1183 3.4253 3.5028
TCL: Running 100000 steps at 180 kelvin.
TCL: Setting parameter langevinTemp to 180
TCL: Running for 100000 steps
ETITLE: TS BOND ANGLE DIHED IMPRP ELECT VDW BOUNDARY MISC KINETIC TOTAL TEMP POTENTIAL TOTAL3 TEMPAVG PRESSURE GPRESSURE VOLUME PRESSAVG GPRESSAVG
ENERGY: 500000 0.3360 1.7502 0.7718 0.0000 -13444.2377 2171.6264 0.0000 0.0000 898.5952 -10371.1581 153.4160 -11269.7533 -10369.1499 153.4160 -768.6649 -708.0811 29249.1183 -768.6649 -708.0811
ENERGY: 600000 0.7882 2.2678 0.9560 0.0000 -13251.9551 2248.5934 0.0000 0.0000 1028.8113 -9970.5384 175.6476 -10999.3497 -9968.2646 180.0599 775.8525 826.2268 29084.5207 3.9519 4.0740
TCL: Running 100000 steps at 210 kelvin.
TCL: Setting parameter langevinTemp to 210
TCL: Running for 100000 steps
ETITLE: TS BOND ANGLE DIHED IMPRP ELECT VDW BOUNDARY MISC KINETIC TOTAL TEMP POTENTIAL TOTAL3 TEMPAVG PRESSURE GPRESSURE VOLUME PRESSAVG GPRESSAVG
ENERGY: 600000 0.7882 2.2678 0.9560 0.0000 -13251.9551 2248.5934 0.0000 0.0000 1028.2914 -9971.0583 175.5589 -10999.3497 -9969.1201 175.5589 763.3710 824.9104 29084.5207 763.3710 824.9104
ENERGY: 700000 2.1613 3.2016 0.9095 0.0000 -12427.9023 1946.8771 0.0000 0.0000 1228.4286 -9246.3241 209.7280 -10474.7528 -9244.0557 209.9228 608.4683 703.8204 28688.9746 3.4967 3.7227
TCL: Running 100000 steps at 240 kelvin.
TCL: Setting parameter langevinTemp to 240
TCL: Running for 100000 steps
ETITLE: TS BOND ANGLE DIHED IMPRP ELECT VDW BOUNDARY MISC KINETIC TOTAL TEMP POTENTIAL TOTAL3 TEMPAVG PRESSURE GPRESSURE VOLUME PRESSAVG GPRESSAVG
ENERGY: 700000 2.1613 3.2016 0.9095 0.0000 -12427.9023 1946.8771 0.0000 0.0000 1227.8054 -9246.9473 209.6216 -10474.7528 -9245.0019 209.6216 609.7531 702.1167 28688.9746 609.7531 702.1167
ENERGY: 800000 1.5951 2.0397 0.8389 0.0000 -11924.5222 1839.8324 0.0000 0.0000 1373.6341 -8706.5820 234.5188 -10080.2161 -8705.2753 239.7040 1022.7713 1048.7504 29019.4036 3.7398 3.7259
TCL: Running 100000 steps at 270 kelvin.
TCL: Setting parameter langevinTemp to 270
TCL: Running for 100000 steps
ETITLE: TS BOND ANGLE DIHED IMPRP ELECT VDW BOUNDARY MISC KINETIC TOTAL TEMP POTENTIAL TOTAL3 TEMPAVG PRESSURE GPRESSURE VOLUME PRESSAVG GPRESSAVG
ENERGY: 800000 1.5951 2.0397 0.8389 0.0000 -11924.5222 1839.8324 0.0000 0.0000 1372.9251 -8707.2911 234.3977 -10080.2161 -8705.9069 234.3977 978.3914 1047.9250 29019.4036 978.3914 1047.9250
ENERGY: 900000 1.1113 1.8185 0.7450 0.0000 -11187.2337 1536.9078 0.0000 0.0000 1591.6568 -8054.9943 271.7415 -9646.6510 -8052.5933 269.6725 -134.7117 -102.2520 29502.4502 2.0372 1.9536
TCL: Running 1000000 steps at 300 kelvin.
TCL: Setting parameter langevinTemp to 300
TCL: Running for 1000000 steps
ETITLE: TS BOND ANGLE DIHED IMPRP ELECT VDW BOUNDARY MISC KINETIC TOTAL TEMP POTENTIAL TOTAL3 TEMPAVG PRESSURE GPRESSURE VOLUME PRESSAVG GPRESSAVG
ENERGY: 900000 1.1113 1.8185 0.7450 0.0000 -11187.2337 1536.9078 0.0000 0.0000 1590.8690 -8055.7820 271.6070 -9646.6510 -8053.3619 271.6070 -187.1780 -102.9551 29502.4502 -187.1780 -102.9551
ENERGY: 1100000 0.3831 2.9834 0.9633 0.0000 -10696.6852 1464.6991 0.0000 0.0000 1726.5582 -7501.0981 294.7731 -9227.6563 -7499.0246 299.8234 264.3623 329.1060 30573.5040 1.8313 1.7221
ENERGY: 1300000 0.6641 3.5796 1.2566 0.0000 -10714.1599 1431.5599 0.0000 0.0000 1751.6506 -7525.4491 299.0571 -9277.0997 -7523.2745 300.5200 -49.2749 6.2561 30325.6249 2.9922 2.9455
ENERGY: 1500000 1.1826 1.5272 0.7975 0.0000 -10769.3651 1564.8250 0.0000 0.0000 1757.4285 -7443.6044 300.0435 -9201.0329 -7441.7622 299.8542 1263.9486 1340.1366 30125.9428 4.1777 4.1065
ENERGY: 1700000 2.0386 4.7485 1.3176 0.0000 -10546.7717 1312.8978 0.0000 0.0000 1729.2602 -7496.5091 295.2344 -9225.7693 -7492.9910 300.5179 -1092.0348 -996.4683 30701.5059 1.4775 1.6904
ENERGY: 1900000 1.3394 2.0577 0.8111 0.0000 -10537.9583 1301.0914 0.0000 0.0000 1758.6637 -7473.9948 300.2544 -9232.6586 -7469.8858 300.7834 -793.9247 -769.7697 30453.5760 3.8562 3.9808
TCL: Exiting due to exit command.
