Info: SIMULATION PARAMETERS:
Info: TIMESTEP               2
Info: NUMBER OF STEPS        0
Info: STEPS PER CYCLE        10
Info: PERIODIC CELL BASIS 1  32.853 0 0
Info: PERIODIC CELL BASIS 2  0 36.762 0
Info: PERIODIC CELL BASIS 3  0 0 36.199
Info: PERIODIC CELL CENTER   0 0 0
Info: WRAPPING WATERS AROUND PERIODIC BOUNDARIES ON OUTPUT.
Info: WRAPPING ALL CLUSTERS AROUND PERIODIC BOUNDARIES ON OUTPUT.
Info: FIRST LDB TIMESTEP     50
Info: LAST LDB TIMESTEP     -1
Info: HOM BACKGROUND SCALING 1
Info: PME BACKGROUND SCALING 1
Info: MIN ATOMS PER PATCH    40
Info: EMPTY PATCH LOAD       40 ATOMS
Info: INITIAL TEMPERATURE    300
Info: CENTER OF MASS MOVING INITIALLY? NO
Info: DIELECTRIC             1
Info: EXCLUDE                SCALED ONE-FOUR
Info: 1-4 ELECTROSTATICS SCALED BY 0.833333
Info: MODIFIED 1-4 VDW PARAMETERS WILL BE USED
Info: DCD FILENAME           mobley_2782339_equil.dcd
Info: DCD FREQUENCY          100000
Info: DCD FIRST STEP         100000
Info: DCD FILE WILL CONTAIN UNIT CELL DATA
Info: XST FILENAME           mobley_2782339_equil.xst
Info: XST FREQUENCY          100000
Info: NO VELOCITY DCD OUTPUT
Info: NO FORCE DCD OUTPUT
Info: OUTPUT FILENAME        mobley_2782339_equil
Info: BINARY OUTPUT FILES WILL BE USED
Info: RESTART FILENAME       mobley_2782339_equil.restart
Info: RESTART FREQUENCY      100000
Info: BINARY RESTART FILES WILL BE USED
Info: CUTOFF                 9
Info: PAIRLIST DISTANCE      11
Info: PAIRLIST SHRINK RATE   0.01
Info: PAIRLIST GROW RATE     0.01
Info: PAIRLIST TRIGGER       0.3
Info: PAIRLISTS PER CYCLE    2
Info: PAIRLISTS ENABLED
Info: MARGIN                 8
Info: HYDROGEN GROUP CUTOFF  2.5
Info: PATCH DIMENSION        21.5
Info: ENERGY OUTPUT STEPS    100000
Info: ENERGY EVALUATION STEPS    100000
Info: OUTPUT ENERGY PRECISION 4
Info: CROSSTERM ENERGY INCLUDED IN DIHEDRAL
Info: TIMING OUTPUT STEPS    1000000
Info: PRESSURE OUTPUT STEPS  100000
Info: LANGEVIN DYNAMICS ACTIVE
Info: LANGEVIN TEMPERATURE   30
Info: LANGEVIN USING BBK INTEGRATOR
Info: LANGEVIN DAMPING COEFFICIENT IS 1 INVERSE PS
Info: LANGEVIN DYNAMICS APPLIED TO HYDROGENS
Info: LANGEVIN PISTON PRESSURE CONTROL ACTIVE
Info:        TARGET PRESSURE IS 1.01325 BAR
Info:     OSCILLATION PERIOD IS 50 FS
Info:             DECAY TIME IS 25 FS
Info:     PISTON TEMPERATURE IS 300 K
Info:       PRESSURE CONTROL IS GROUP-BASED
Info:    INITIAL STRAIN RATE IS 0 0 0
Info:       CELL FLUCTUATION IS ISOTROPIC
Info: PARTICLE MESH EWALD (PME) ACTIVE
Info: PME TOLERANCE               1e-06
Info: PME EWALD COEFFICIENT       0.348832
Info: PME INTERPOLATION ORDER     4
Info: PME GRID DIMENSIONS         36 40 40
Info: PME MAXIMUM GRID SPACING    1
Info: FULL ELECTROSTATIC EVALUATION FREQUENCY      2
Info: USING VERLET I (r-RESPA) MTS SCHEME.
Info: C1 SPLITTING OF LONG RANGE ELECTROSTATICS
Info: PLACING ATOMS IN PATCHES BY HYDROGEN GROUPS
Info: RIGID BONDS TO HYDROGEN : ALL
Info:         ERROR TOLERANCE : 1e-08
Info:          MAX ITERATIONS : 100
Info: RIGID WATER USING SETTLE ALGORITHM
Info: RANDOM NUMBER SEED     1742261162
Info: USE HYDROGEN BONDS?    NO
Info: Using AMBER format force field!
Info: AMBER PARM FILE        mobley_2782339.prmtop
Info: COORDINATE PDB         mobley_2782339.pdb
Info: Exclusions will be read from PARM file!
Info: SCNB (VDW SCALING)     2
Info: USING ARITHMETIC MEAN TO COMBINE L-J SIGMA PARAMETERS
Info: BINARY COORDINATES     mobley_2782339_min.coor
Info: SUMMARY OF PARAMETERS:
Info: 8 BONDS
Info: 8 ANGLES
Info: 7 DIHEDRAL
Info: 0 IMPROPER
Info: 0 CROSSTERM
Info: 0 VDW
Info: 28 VDW_PAIRS
Info: 0 NBTHOLE_PAIRS
Info: STRUCTURE SUMMARY:
Info: 2926 ATOMS
Info: 2927 BONDS
Info: 27 ANGLES
Info: 49 DIHEDRALS
Info: 0 IMPROPERS
Info: 0 CROSSTERMS
Info: 2986 EXCLUSIONS
Info: 2915 RIGID BONDS
Info: 5863 DEGREES OF FREEDOM
Info: 981 HYDROGEN GROUPS
Info: 3 ATOMS IN LARGEST HYDROGEN GROUP
Info: 981 MIGRATION GROUPS
Info: 3 ATOMS IN LARGEST MIGRATION GROUP
Info: TOTAL MASS = 17622.7 amu
Info: TOTAL CHARGE = 5.21541e-08 e
Info: MASS DENSITY = 0.66936 g/cm^3
Info: ATOM DENSITY = 0.0669273 atoms/A^3
Info: ADDED 0 IMPLICIT EXCLUSIONS
Info: NONBONDED TABLE R-SQUARED SPACING: 0.0625
Info: NONBONDED TABLE SIZE: 705 POINTS
Info: REMOVING COM VELOCITY -0.0117267 -0.241347 -0.169226
TCL: Running for 100000 steps
ETITLE: TS BOND ANGLE DIHED IMPRP ELECT VDW BOUNDARY MISC KINETIC TOTAL TEMP POTENTIAL TOTAL3 TEMPAVG PRESSURE GPRESSURE VOLUME PRESSAVG GPRESSAVG
ENERGY: 0 0.6780 21.1982 8.1775 0.0000 -13584.8594 2382.9247 0.0000 0.0000 1815.5848 -9356.2962 311.6643 -11171.8810 -9355.9158 311.6643 381.9178 415.9039 43719.0522 381.9178 415.9039
ENERGY: 100000 0.9014 21.8708 8.7377 0.0000 -14209.6335 2504.9903 0.0000 0.0000 183.2091 -11489.9242 31.4498 -11673.1332 -11489.3560 31.0147 551.5478 607.9843 28614.6247 6.0161 6.0511
TCL: Running 100000 steps at 60 kelvin.
TCL: Setting parameter langevinTemp to 60
TCL: Running for 100000 steps
ETITLE: TS BOND ANGLE DIHED IMPRP ELECT VDW BOUNDARY MISC KINETIC TOTAL TEMP POTENTIAL TOTAL3 TEMPAVG PRESSURE GPRESSURE VOLUME PRESSAVG GPRESSAVG
ENERGY: 100000 0.9014 21.8708 8.7377 0.0000 -14209.6335 2504.9903 0.0000 0.0000 183.1230 -11490.0102 31.4350 -11673.1332 -11489.5850 31.4350 548.8194 608.1301 28614.6247 548.8194 608.1301
ENERGY: 200000 1.9063 21.9463 9.0604 0.0000 -14198.7904 2535.2676 0.0000 0.0000 359.6797 -11270.9301 61.7428 -11630.6098 -11270.0919 59.8561 1035.7975 1068.2017 28306.6390 5.1355 5.0892
TCL: Running 100000 steps at 90 kelvin.
TCL: Setting parameter langevinTemp to 90
TCL: Running for 100000 steps
ETITLE: TS BOND ANGLE DIHED IMPRP ELECT VDW BOUNDARY MISC KINETIC TOTAL TEMP POTENTIAL TOTAL3 TEMPAVG PRESSURE GPRESSURE VOLUME PRESSAVG GPRESSAVG
ENERGY: 200000 1.9063 21.9463 9.0604 0.0000 -14198.7904 2535.2676 0.0000 0.0000 359.5048 -11271.1049 61.7128 -11630.6098 -11270.4348 61.7128 1031.4763 1068.1556 28306.6390 1031.4763 1068.1556
ENERGY: 300000 1.1552 21.6234 10.6243 0.0000 -13933.9771 2368.0824 0.0000 0.0000 524.4049 -11008.0869 90.0196 -11532.4918 -11006.2657 90.1382 31.2263 88.1139 28456.4536 2.6029 2.4946
TCL: Running 100000 steps at 120 kelvin.
TCL: Setting parameter langevinTemp to 120
TCL: Running for 100000 steps
ETITLE: TS BOND ANGLE DIHED IMPRP ELECT VDW BOUNDARY MISC KINETIC TOTAL TEMP POTENTIAL TOTAL3 TEMPAVG PRESSURE GPRESSURE VOLUME PRESSAVG GPRESSAVG
ENERGY: 300000 1.1552 21.6234 10.6243 0.0000 -13933.9771 2368.0824 0.0000 0.0000 524.1438 -11008.3480 89.9748 -11532.4918 -11007.1849 89.9748 33.6644 88.2102 28456.4536 33.6644 88.2102
ENERGY: 400000 3.2977 22.0542 10.4447 0.0000 -13758.6495 2334.4807 0.0000 0.0000 698.0857 -10690.2865 119.8338 -11388.3722 -10688.0306 119.8622 251.9655 269.4255 28635.3938 3.3125 3.1738
TCL: Running 100000 steps at 150 kelvin.
TCL: Setting parameter langevinTemp to 150
TCL: Running for 100000 steps
ETITLE: TS BOND ANGLE DIHED IMPRP ELECT VDW BOUNDARY MISC KINETIC TOTAL TEMP POTENTIAL TOTAL3 TEMPAVG PRESSURE GPRESSURE VOLUME PRESSAVG GPRESSAVG
ENERGY: 400000 3.2977 22.0542 10.4447 0.0000 -13758.6495 2334.4807 0.0000 0.0000 697.7482 -10690.6240 119.7758 -11388.3722 -10688.7749 119.7758 222.1152 269.6987 28635.3938 222.1152 269.6987
ENERGY: 500000 3.1215 24.0740 9.0365 0.0000 -13343.3919 2106.6527 0.0000 0.0000 915.5764 -10284.9307 157.1683 -11200.5071 -10281.2311 150.2678 -1022.6369 -1010.9350 28789.7522 4.3136 4.3356
TCL: Running 100000 steps at 180 kelvin.
TCL: Setting parameter langevinTemp to 180
TCL: Running for 100000 steps
ETITLE: TS BOND ANGLE DIHED IMPRP ELECT VDW BOUNDARY MISC KINETIC TOTAL TEMP POTENTIAL TOTAL3 TEMPAVG PRESSURE GPRESSURE VOLUME PRESSAVG GPRESSAVG
ENERGY: 500000 3.1215 24.0740 9.0365 0.0000 -13343.3919 2106.6527 0.0000 0.0000 915.1319 -10285.3752 157.0920 -11200.5071 -10283.6787 157.0920 -1063.6466 -1010.5909 28789.7522 -1063.6466 -1010.5909
ENERGY: 600000 3.7376 23.2830 10.3601 0.0000 -13137.3863 2199.8187 0.0000 0.0000 1023.4109 -9876.7760 175.6793 -10900.1869 -9874.5270 179.7945 725.1626 769.9207 28680.9854 3.1853 3.3228
TCL: Running 100000 steps at 210 kelvin.
TCL: Setting parameter langevinTemp to 210
TCL: Running for 100000 steps
ETITLE: TS BOND ANGLE DIHED IMPRP ELECT VDW BOUNDARY MISC KINETIC TOTAL TEMP POTENTIAL TOTAL3 TEMPAVG PRESSURE GPRESSURE VOLUME PRESSAVG GPRESSAVG
ENERGY: 600000 3.7376 23.2830 10.3601 0.0000 -13137.3863 2199.8187 0.0000 0.0000 1022.8630 -9877.3239 175.5852 -10900.1869 -9875.8338 175.5852 704.4377 770.4816 28680.9854 704.4377 770.4816
ENERGY: 700000 5.3960 22.5219 10.2047 0.0000 -12389.1997 1907.7104 0.0000 0.0000 1234.7329 -9208.6339 211.9549 -10443.3667 -9208.3763 209.8973 202.3186 277.2242 28686.4867 2.3532 2.4230
TCL: Running 100000 steps at 240 kelvin.
TCL: Setting parameter langevinTemp to 240
TCL: Running for 100000 steps
ETITLE: TS BOND ANGLE DIHED IMPRP ELECT VDW BOUNDARY MISC KINETIC TOTAL TEMP POTENTIAL TOTAL3 TEMPAVG PRESSURE GPRESSURE VOLUME PRESSAVG GPRESSAVG
ENERGY: 700000 5.3960 22.5219 10.2047 0.0000 -12389.1997 1907.7104 0.0000 0.0000 1234.1180 -9209.2487 211.8494 -10443.3667 -9206.7171 211.8494 197.6305 274.0324 28686.4867 197.6305 274.0324
ENERGY: 800000 5.2366 24.2372 12.6940 0.0000 -11847.3632 1780.2146 0.0000 0.0000 1437.0687 -8587.9121 246.6880 -10024.9808 -8583.2636 239.9714 932.0712 995.7507 28312.5793 4.9826 4.8887
TCL: Running 100000 steps at 270 kelvin.
TCL: Setting parameter langevinTemp to 270
TCL: Running for 100000 steps
ETITLE: TS BOND ANGLE DIHED IMPRP ELECT VDW BOUNDARY MISC KINETIC TOTAL TEMP POTENTIAL TOTAL3 TEMPAVG PRESSURE GPRESSURE VOLUME PRESSAVG GPRESSAVG
ENERGY: 800000 5.2366 24.2372 12.6940 0.0000 -11847.3632 1780.2146 0.0000 0.0000 1436.3854 -8588.5954 246.5707 -10024.9808 -8586.1561 246.5707 913.7306 997.4278 28312.5793 913.7306 997.4278
ENERGY: 900000 3.2057 22.0543 14.4449 0.0000 -11125.3498 1538.9634 0.0000 0.0000 1589.6267 -7957.0548 272.8762 -9546.6814 -7955.7302 270.7351 21.8316 151.1366 29629.0541 3.2775 3.4394
TCL: Running 1000000 steps at 300 kelvin.
TCL: Setting parameter langevinTemp to 300
TCL: Running for 1000000 steps
ETITLE: TS BOND ANGLE DIHED IMPRP ELECT VDW BOUNDARY MISC KINETIC TOTAL TEMP POTENTIAL TOTAL3 TEMPAVG PRESSURE GPRESSURE VOLUME PRESSAVG GPRESSAVG
ENERGY: 900000 3.2057 22.0543 14.4449 0.0000 -11125.3498 1538.9634 0.0000 0.0000 1588.8182 -7957.8632 272.7374 -9546.6814 -7954.9564 272.7374 72.0583 149.9491 29629.0541 72.0583 149.9491
ENERGY: 1100000 5.2092 23.9193 9.5546 0.0000 -10722.6520 1404.3667 0.0000 0.0000 1756.6013 -7523.0009 301.5391 -9279.6022 -7517.0075 300.2695 -472.6450 -356.8898 29872.8822 1.7037 1.6673
ENERGY: 1300000 2.2846 23.5066 14.4545 0.0000 -10624.2762 1374.8740 0.0000 0.0000 1753.7848 -7455.3718 301.0556 -9209.1565 -7453.4512 300.3025 -403.0792 -315.2898 30002.6149 2.8255 2.7770
ENERGY: 1500000 6.1455 23.6113 14.3231 0.0000 -10720.5828 1413.7280 0.0000 0.0000 1684.6811 -7578.0937 289.1933 -9262.7748 -7576.6538 300.3408 -337.4040 -259.7716 30233.1641 3.1717 3.0439
ENERGY: 1700000 4.0308 22.6909 9.9195 0.0000 -10674.3128 1420.7799 0.0000 0.0000 1708.1661 -7508.7256 293.2247 -9216.8917 -7506.3012 300.3134 -155.8305 -84.7692 30328.4551 3.1322 3.0615
ENERGY: 1900000 5.8328 23.5227 13.5663 0.0000 -10663.4604 1438.3746 0.0000 0.0000 1730.5047 -7451.6593 297.0594 -9182.1639 -7447.2351 300.7323 221.4669 337.1641 30148.1005 4.2371 4.1872
TCL: Exiting due to exit command.
