Info: SIMULATION PARAMETERS:
Info: TIMESTEP               2
Info: NUMBER OF STEPS        0
Info: STEPS PER CYCLE        10
Info: PERIODIC CELL BASIS 1  38.861 0 0
Info: PERIODIC CELL BASIS 2  0 40.42 0
Info: PERIODIC CELL BASIS 3  0 0 40.136
Info: PERIODIC CELL CENTER   0 0 0
Info: WRAPPING WATERS AROUND PERIODIC BOUNDARIES ON OUTPUT.
Info: WRAPPING ALL CLUSTERS AROUND PERIODIC BOUNDARIES ON OUTPUT.
Info: FIRST LDB TIMESTEP     50
Info: LAST LDB TIMESTEP     -1
Info: HOM BACKGROUND SCALING 1
Info: PME BACKGROUND SCALING 1
Info: MIN ATOMS PER PATCH    40
Info: EMPTY PATCH LOAD       40 ATOMS
Info: INITIAL TEMPERATURE    300
Info: CENTER OF MASS MOVING INITIALLY? NO
Info: DIELECTRIC             1
Info: EXCLUDE                SCALED ONE-FOUR
Info: 1-4 ELECTROSTATICS SCALED BY 0.833333
Info: MODIFIED 1-4 VDW PARAMETERS WILL BE USED
Info: DCD FILENAME           mobley_627267_min.dcd
Info: DCD FREQUENCY          5000
Info: DCD FIRST STEP         5000
Info: DCD FILE WILL CONTAIN UNIT CELL DATA
Info: XST FILENAME           mobley_627267_min.xst
Info: XST FREQUENCY          5000
Info: NO VELOCITY DCD OUTPUT
Info: NO FORCE DCD OUTPUT
Info: OUTPUT FILENAME        mobley_627267_min
Info: BINARY OUTPUT FILES WILL BE USED
Info: RESTART FILENAME       mobley_627267_min.restart
Info: RESTART FREQUENCY      5000
Info: BINARY RESTART FILES WILL BE USED
Info: CUTOFF                 9
Info: PAIRLIST DISTANCE      11
Info: PAIRLIST SHRINK RATE   0.01
Info: PAIRLIST GROW RATE     0.01
Info: PAIRLIST TRIGGER       0.3
Info: PAIRLISTS PER CYCLE    2
Info: PAIRLISTS ENABLED
Info: MARGIN                 8
Info: HYDROGEN GROUP CUTOFF  2.5
Info: PATCH DIMENSION        21.5
Info: ENERGY OUTPUT STEPS    5000
Info: ENERGY EVALUATION STEPS    5000
Info: OUTPUT ENERGY PRECISION 4
Info: CROSSTERM ENERGY INCLUDED IN DIHEDRAL
Info: TIMING OUTPUT STEPS    50000
Info: PRESSURE OUTPUT STEPS  5000
Info: LANGEVIN DYNAMICS ACTIVE
Info: LANGEVIN TEMPERATURE   300
Info: LANGEVIN USING BBK INTEGRATOR
Info: LANGEVIN DAMPING COEFFICIENT IS 1 INVERSE PS
Info: LANGEVIN DYNAMICS APPLIED TO HYDROGENS
Info: LANGEVIN PISTON PRESSURE CONTROL ACTIVE
Info:        TARGET PRESSURE IS 1.01325 BAR
Info:     OSCILLATION PERIOD IS 50 FS
Info:             DECAY TIME IS 25 FS
Info:     PISTON TEMPERATURE IS 300 K
Info:       PRESSURE CONTROL IS GROUP-BASED
Info:    INITIAL STRAIN RATE IS 0 0 0
Info:       CELL FLUCTUATION IS ISOTROPIC
Info: PARTICLE MESH EWALD (PME) ACTIVE
Info: PME TOLERANCE               1e-06
Info: PME EWALD COEFFICIENT       0.348832
Info: PME INTERPOLATION ORDER     4
Info: PME GRID DIMENSIONS         40 44 44
Info: PME MAXIMUM GRID SPACING    1
Info: FULL ELECTROSTATIC EVALUATION FREQUENCY      2
Info: USING VERLET I (r-RESPA) MTS SCHEME.
Info: C1 SPLITTING OF LONG RANGE ELECTROSTATICS
Info: PLACING ATOMS IN PATCHES BY HYDROGEN GROUPS
Info: RIGID BONDS TO HYDROGEN : ALL
Info:         ERROR TOLERANCE : 1e-08
Info:          MAX ITERATIONS : 100
Info: RIGID WATER USING SETTLE ALGORITHM
Info: RANDOM NUMBER SEED     1741382349
Info: USE HYDROGEN BONDS?    NO
Info: Using AMBER format force field!
Info: AMBER PARM FILE        mobley_627267.prmtop
Info: COORDINATE PDB         mobley_627267.pdb
Info: Exclusions will be read from PARM file!
Info: SCNB (VDW SCALING)     2
Info: USING ARITHMETIC MEAN TO COMBINE L-J SIGMA PARAMETERS
Info: SUMMARY OF PARAMETERS:
Info: 6 BONDS
Info: 7 ANGLES
Info:   7 HARMONIC
Info:   0 COSINE-BASED
Info: 4 DIHEDRAL
Info: 0 IMPROPER
Info: 0 CROSSTERM
Info: 0 VDW
Info: 21 VDW_PAIRS
Info: 0 NBTHOLE_PAIRS
Info: STRUCTURE SUMMARY:
Info: 4538 ATOMS
Info: 4537 BONDS
Info: 24 ANGLES
Info: 27 DIHEDRALS
Info: 0 IMPROPERS
Info: 0 CROSSTERMS
Info: 4588 EXCLUSIONS
Info: 4533 RIGID BONDS
Info: 9081 DEGREES OF FREEDOM
Info: 1513 HYDROGEN GROUPS
Info: 4 ATOMS IN LARGEST HYDROGEN GROUP
Info: 1513 MIGRATION GROUPS
Info: 4 ATOMS IN LARGEST MIGRATION GROUP
Info: TOTAL MASS = 27305.1 amu
Info: TOTAL CHARGE = 0.000100003 e
Info: MASS DENSITY = 0.719216 g/cm^3
Info: ATOM DENSITY = 0.0719814 atoms/A^3
Info: ADDED 0 IMPLICIT EXCLUSIONS
Info: NONBONDED TABLE R-SQUARED SPACING: 0.0625
Info: NONBONDED TABLE SIZE: 705 POINTS
Info: REMOVING COM VELOCITY 0.0618667 0.161252 0.0343814
TCL: Minimizing for 2000 steps
ETITLE: TS BOND ANGLE DIHED IMPRP ELECT VDW BOUNDARY MISC KINETIC TOTAL TEMP POTENTIAL TOTAL3 TEMPAVG PRESSURE GPRESSURE VOLUME PRESSAVG GPRESSAVG
ENERGY: 0 0.1460 0.8269 0.0189 0.0000 -14045.0791 1570.0820 0.0000 0.0000 0.0000 -12474.0052 0.0000 -12474.0052 -12474.0052 0.0000 10885.5288 -15789.3581 63044.0884 10885.5288 -15789.3581
ENERGY: 400 0.8277 4.2333 0.1664 0.0000 -19210.7340 2888.5881 0.0000 0.0000 0.0000 -16316.9185 0.0000 -16316.9185 -16316.9185 0.0000 16287.1580 16421.1451 63044.0884 16287.1580 16421.1451
ENERGY: 800 0.6036 0.9522 0.2495 0.0000 -20200.4995 3335.5221 0.0000 0.0000 0.0000 -16863.1720 0.0000 -16863.1720 -16863.1720 0.0000 18501.2397 18607.9007 63044.0884 18501.2397 18607.9007
ENERGY: 1200 0.5472 0.9861 0.2411 0.0000 -20566.2627 3505.2275 0.0000 0.0000 0.0000 -17059.2608 0.0000 -17059.2608 -17059.2608 0.0000 19383.9937 19476.1165 63044.0884 19383.9937 19476.1165
ENERGY: 1600 0.2981 0.5670 0.2317 0.0000 -20752.2153 3582.8589 0.0000 0.0000 0.0000 -17168.2597 0.0000 -17168.2597 -17168.2597 0.0000 19790.7313 19884.6142 63044.0884 19790.7313 19884.6142
ENERGY: 2000 0.1827 0.6377 0.1823 0.0000 -20824.5715 3613.9063 0.0000 0.0000 0.0000 -17209.6624 0.0000 -17209.6624 -17209.6624 0.0000 19988.2084 20070.8673 63044.0884 19988.2084 20070.8673
TCL: Exiting due to exit command.
Info: NAMD 3.0.1 for Linux-x86_64-multicore
Info: Please visit http://www.ks.uiuc.edu/Research/namd/
Info: for updates, documentation, and support information.
Info: Please cite Phillips et al., J. Chem. Phys. 153:044130 (2020) doi:10.1063/5.0014475
Info: in all publications reporting results obtained with NAMD.
Info: Based on Charm++/Converse 80000 for multicore-linux-x86_64-gcc
Info: Built Mon Oct 14 11:11:06 CDT 2024 by dhardy on athine.ks.uiuc.edu
Info: 1 NAMD  3.0.1  Linux-x86_64-multicore  16    k013  z5358697
Info: Running on 16 processors, 1 nodes, 1 physical nodes.
Info: CPU topology information available.
Info: Charm++/Converse parallel runtime startup completed at 0.00871994 s
Info: 1043.45 MB of memory in use based on /proc/self/stat
Info: Configuration file is mobley_627267_equil.namd
Info: Working in the current directory /srv/scratch/z5358697/prod_prep_8/627267
TCL: Running 25000 steps at 30 kelvin.
TCL: Suspending until startup complete.
Info: SIMULATION PARAMETERS:
Info: TIMESTEP               2
Info: NUMBER OF STEPS        0
Info: STEPS PER CYCLE        10
Info: PERIODIC CELL BASIS 1  38.861 0 0
Info: PERIODIC CELL BASIS 2  0 40.42 0
Info: PERIODIC CELL BASIS 3  0 0 40.136
Info: PERIODIC CELL CENTER   0 0 0
Info: WRAPPING WATERS AROUND PERIODIC BOUNDARIES ON OUTPUT.
Info: WRAPPING ALL CLUSTERS AROUND PERIODIC BOUNDARIES ON OUTPUT.
Info: FIRST LDB TIMESTEP     50
Info: LAST LDB TIMESTEP     -1
Info: HOM BACKGROUND SCALING 1
Info: PME BACKGROUND SCALING 1
Info: MIN ATOMS PER PATCH    40
Info: EMPTY PATCH LOAD       40 ATOMS
Info: INITIAL TEMPERATURE    300
Info: CENTER OF MASS MOVING INITIALLY? NO
Info: DIELECTRIC             1
Info: EXCLUDE                SCALED ONE-FOUR
Info: 1-4 ELECTROSTATICS SCALED BY 0.833333
Info: MODIFIED 1-4 VDW PARAMETERS WILL BE USED
Info: DCD FILENAME           mobley_627267_equil.dcd
Info: DCD FREQUENCY          5000
Info: DCD FIRST STEP         5000
Info: DCD FILE WILL CONTAIN UNIT CELL DATA
Info: XST FILENAME           mobley_627267_equil.xst
Info: XST FREQUENCY          5000
Info: NO VELOCITY DCD OUTPUT
Info: NO FORCE DCD OUTPUT
Info: OUTPUT FILENAME        mobley_627267_equil
Info: BINARY OUTPUT FILES WILL BE USED
Info: RESTART FILENAME       mobley_627267_equil.restart
Info: RESTART FREQUENCY      5000
Info: BINARY RESTART FILES WILL BE USED
Info: CUTOFF                 9
Info: PAIRLIST DISTANCE      11
Info: PAIRLIST SHRINK RATE   0.01
Info: PAIRLIST GROW RATE     0.01
Info: PAIRLIST TRIGGER       0.3
Info: PAIRLISTS PER CYCLE    2
Info: PAIRLISTS ENABLED
Info: MARGIN                 8
Info: HYDROGEN GROUP CUTOFF  2.5
Info: PATCH DIMENSION        21.5
Info: ENERGY OUTPUT STEPS    5000
Info: ENERGY EVALUATION STEPS    5000
Info: OUTPUT ENERGY PRECISION 4
Info: CROSSTERM ENERGY INCLUDED IN DIHEDRAL
Info: TIMING OUTPUT STEPS    50000
Info: PRESSURE OUTPUT STEPS  5000
Info: LANGEVIN DYNAMICS ACTIVE
Info: LANGEVIN TEMPERATURE   30
Info: LANGEVIN USING BBK INTEGRATOR
Info: LANGEVIN DAMPING COEFFICIENT IS 1 INVERSE PS
Info: LANGEVIN DYNAMICS APPLIED TO HYDROGENS
Info: LANGEVIN PISTON PRESSURE CONTROL ACTIVE
Info:        TARGET PRESSURE IS 1.01325 BAR
Info:     OSCILLATION PERIOD IS 50 FS
Info:             DECAY TIME IS 25 FS
Info:     PISTON TEMPERATURE IS 300 K
Info:       PRESSURE CONTROL IS GROUP-BASED
Info:    INITIAL STRAIN RATE IS 0 0 0
Info:       CELL FLUCTUATION IS ISOTROPIC
Info: PARTICLE MESH EWALD (PME) ACTIVE
Info: PME TOLERANCE               1e-06
Info: PME EWALD COEFFICIENT       0.348832
Info: PME INTERPOLATION ORDER     4
Info: PME GRID DIMENSIONS         40 44 44
Info: PME MAXIMUM GRID SPACING    1
Info: FULL ELECTROSTATIC EVALUATION FREQUENCY      2
Info: USING VERLET I (r-RESPA) MTS SCHEME.
Info: C1 SPLITTING OF LONG RANGE ELECTROSTATICS
Info: PLACING ATOMS IN PATCHES BY HYDROGEN GROUPS
Info: RIGID BONDS TO HYDROGEN : ALL
Info:         ERROR TOLERANCE : 1e-08
Info:          MAX ITERATIONS : 100
Info: RIGID WATER USING SETTLE ALGORITHM
Info: RANDOM NUMBER SEED     1741382366
Info: USE HYDROGEN BONDS?    NO
Info: Using AMBER format force field!
Info: AMBER PARM FILE        mobley_627267.prmtop
Info: COORDINATE PDB         mobley_627267.pdb
Info: Exclusions will be read from PARM file!
Info: SCNB (VDW SCALING)     2
Info: USING ARITHMETIC MEAN TO COMBINE L-J SIGMA PARAMETERS
Info: BINARY COORDINATES     mobley_627267_min.coor
Info: SUMMARY OF PARAMETERS:
Info: 6 BONDS
Info: 7 ANGLES
Info: 4 DIHEDRAL
Info: 0 IMPROPER
Info: 0 CROSSTERM
Info: 0 VDW
Info: 21 VDW_PAIRS
Info: 0 NBTHOLE_PAIRS
Info: STRUCTURE SUMMARY:
Info: 4538 ATOMS
Info: 4537 BONDS
Info: 24 ANGLES
Info: 27 DIHEDRALS
Info: 0 IMPROPERS
Info: 0 CROSSTERMS
Info: 4588 EXCLUSIONS
Info: 4533 RIGID BONDS
Info: 9081 DEGREES OF FREEDOM
Info: 1513 HYDROGEN GROUPS
Info: 4 ATOMS IN LARGEST HYDROGEN GROUP
Info: 1513 MIGRATION GROUPS
Info: 4 ATOMS IN LARGEST MIGRATION GROUP
Info: TOTAL MASS = 27305.1 amu
Info: TOTAL CHARGE = 0.000100003 e
Info: MASS DENSITY = 0.719216 g/cm^3
Info: ATOM DENSITY = 0.0719814 atoms/A^3
Info: ADDED 0 IMPLICIT EXCLUSIONS
Info: NONBONDED TABLE R-SQUARED SPACING: 0.0625
Info: NONBONDED TABLE SIZE: 705 POINTS
Info: REMOVING COM VELOCITY -0.0774853 0.0961652 0.0440951
TCL: Running for 25000 steps
ETITLE: TS BOND ANGLE DIHED IMPRP ELECT VDW BOUNDARY MISC KINETIC TOTAL TEMP POTENTIAL TOTAL3 TEMPAVG PRESSURE GPRESSURE VOLUME PRESSAVG GPRESSAVG
ENERGY: 0 0.1827 0.6377 0.1823 0.0000 -20824.5715 3613.9063 0.0000 0.0000 2712.5536 -14497.1089 300.6319 -17209.6624 -14496.5724 300.6319 251.0066 288.3953 63044.0884 251.0066 288.3953
ENERGY: 5000 0.2019 1.2666 0.2000 0.0000 -21711.9307 3714.2409 0.0000 0.0000 269.5609 -17726.4604 29.8754 -17996.0213 -17725.8325 47.8173 -537.3395 -497.7408 45290.9789 -3.9625 -4.1800
ENERGY: 10000 0.5425 1.0215 0.1678 0.0000 -21715.7292 3665.3465 0.0000 0.0000 264.4308 -17784.2200 29.3068 -18048.6508 -17783.5252 30.2453 -932.5836 -894.3163 45365.4133 2.0869 2.1838
ENERGY: 15000 0.1431 1.3883 0.1282 0.0000 -22004.5273 3947.3680 0.0000 0.0000 266.4200 -17789.0796 29.5273 -18055.4996 -17788.4670 30.0241 611.8046 674.7422 44806.4290 6.1507 6.3919
ENERGY: 20000 0.1551 1.7234 0.3962 0.0000 -21833.1897 3787.4860 0.0000 0.0000 268.1155 -17775.3135 29.7152 -18043.4289 -17774.7503 29.9099 -227.0539 -150.5551 45006.1793 5.7231 5.6747
ENERGY: 25000 0.0672 1.2266 0.3861 0.0000 -21995.7718 3937.1318 0.0000 0.0000 270.8831 -17786.0770 30.0219 -18056.9601 -17785.3843 30.2537 571.1883 613.5367 44866.1061 2.8064 2.6235
TCL: Running 25000 steps at 60 kelvin.
TCL: Setting parameter langevinTemp to 60
TCL: Running for 25000 steps
ETITLE: TS BOND ANGLE DIHED IMPRP ELECT VDW BOUNDARY MISC KINETIC TOTAL TEMP POTENTIAL TOTAL3 TEMPAVG PRESSURE GPRESSURE VOLUME PRESSAVG GPRESSAVG
ENERGY: 25000 0.0672 1.2266 0.3861 0.0000 -21995.7718 3937.1318 0.0000 0.0000 270.7484 -17786.2118 30.0070 -18056.9601 -17785.7030 30.0070 561.5783 613.6730 44866.1061 561.5783 613.6730
ENERGY: 30000 0.5561 2.1795 0.1671 0.0000 -21515.8659 3714.8758 0.0000 0.0000 542.7106 -17255.3768 60.1485 -17798.0874 -17253.8621 56.9596 -45.1400 11.7386 45343.8471 3.9949 3.5114
ENERGY: 35000 0.2101 1.6942 0.1217 0.0000 -21537.3751 3714.3905 0.0000 0.0000 536.1982 -17284.7604 59.4268 -17820.9586 -17283.6908 60.1139 0.3694 64.5983 45068.2026 7.0755 6.6856
ENERGY: 40000 0.5965 2.5405 0.2526 0.0000 -21431.0301 3588.4384 0.0000 0.0000 549.9724 -17289.2298 60.9533 -17839.2021 -17287.8335 60.3653 -734.0254 -716.7687 45304.8358 1.3854 1.6135
ENERGY: 45000 0.1860 1.7362 0.1157 0.0000 -21490.4369 3599.8674 0.0000 0.0000 552.6755 -17335.8562 61.2529 -17888.5317 -17334.4889 60.1800 -756.8755 -727.0533 45245.7789 2.0603 1.5836
ENERGY: 50000 0.1750 1.4842 0.2976 0.0000 -21778.8436 3876.1895 0.0000 0.0000 530.3379 -17370.3594 58.7773 -17900.6973 -17369.2483 60.2302 829.1507 884.7396 44412.9695 -2.1484 -2.0727
TCL: Running 25000 steps at 90 kelvin.
TCL: Setting parameter langevinTemp to 90
TCL: Running for 25000 steps
ETITLE: TS BOND ANGLE DIHED IMPRP ELECT VDW BOUNDARY MISC KINETIC TOTAL TEMP POTENTIAL TOTAL3 TEMPAVG PRESSURE GPRESSURE VOLUME PRESSAVG GPRESSAVG
ENERGY: 50000 0.1750 1.4842 0.2976 0.0000 -21778.8436 3876.1895 0.0000 0.0000 530.0767 -17370.6206 58.7483 -17900.6973 -17369.5735 58.7483 835.6928 884.3013 44412.9695 835.6928 884.3013
ENERGY: 55000 0.6756 2.0071 0.6083 0.0000 -21301.0982 3657.5952 0.0000 0.0000 807.4287 -16832.7832 89.4872 -17640.2119 -16831.1985 87.2010 187.7853 221.2849 44909.7796 1.3136 0.9751
ENERGY: 60000 0.3796 2.3838 0.3356 0.0000 -21291.1614 3631.2802 0.0000 0.0000 801.1316 -16855.6506 88.7893 -17656.7822 -16853.3544 90.1997 -104.1807 -42.7446 45249.6070 4.8351 4.7739
ENERGY: 65000 0.9181 2.6712 0.3538 0.0000 -21185.4133 3528.5861 0.0000 0.0000 812.8634 -16840.0209 90.0895 -17652.8843 -16837.2265 90.1658 -663.0013 -610.2753 45311.7707 7.0328 6.8029
ENERGY: 70000 0.6238 1.9170 0.2931 0.0000 -21264.6389 3589.1739 0.0000 0.0000 816.0196 -16856.6117 90.4393 -17672.6313 -16855.3284 90.0042 -351.6966 -303.1539 45213.9802 -0.2283 0.1360
ENERGY: 75000 0.3897 1.7080 0.9273 0.0000 -21226.9637 3521.3894 0.0000 0.0000 792.8341 -16909.7153 87.8697 -17702.5493 -16907.8333 89.6374 -720.4701 -672.0802 45105.8785 7.0485 6.7868
TCL: Running 25000 steps at 120 kelvin.
TCL: Setting parameter langevinTemp to 120
TCL: Running for 25000 steps
ETITLE: TS BOND ANGLE DIHED IMPRP ELECT VDW BOUNDARY MISC KINETIC TOTAL TEMP POTENTIAL TOTAL3 TEMPAVG PRESSURE GPRESSURE VOLUME PRESSAVG GPRESSAVG
ENERGY: 75000 0.3897 1.7080 0.9273 0.0000 -21226.9637 3521.3894 0.0000 0.0000 792.4289 -16910.1205 87.8248 -17702.5493 -16908.4730 87.8248 -718.9818 -672.3438 45105.8785 -718.9818 -672.3438
ENERGY: 80000 0.6135 3.0869 0.0885 0.0000 -20895.2665 3488.5261 0.0000 0.0000 1103.3798 -16299.5718 122.2874 -17402.9516 -16296.4189 116.4907 -153.6865 -112.1317 45106.3869 -2.0788 -1.5939
ENERGY: 85000 0.0033 2.7612 1.2868 0.0000 -20897.7055 3491.2131 0.0000 0.0000 1100.4251 -16302.0160 121.9599 -17402.4411 -16297.7259 121.6991 -206.0842 -125.8444 45063.9282 -1.8041 -1.5636
ENERGY: 90000 0.6153 4.5425 0.1710 0.0000 -20954.3062 3520.7622 0.0000 0.0000 1101.3698 -16326.8455 122.0646 -17428.2153 -16323.9818 120.4653 49.2515 93.1286 44728.2906 0.6704 0.6555
ENERGY: 95000 0.1946 2.9248 0.1743 0.0000 -21122.6977 3637.2939 0.0000 0.0000 1092.8673 -16389.2427 121.1223 -17482.1100 -16386.6171 119.6677 592.9572 651.4643 44621.5748 -4.9156 -4.2384
ENERGY: 100000 0.8341 3.7350 1.4543 0.0000 -20955.8781 3488.2534 0.0000 0.0000 1088.8491 -16372.7522 120.6770 -17461.6013 -16369.5324 121.0136 -355.7833 -314.9363 45010.6286 4.9475 4.7949
TCL: Running 25000 steps at 150 kelvin.
TCL: Setting parameter langevinTemp to 150
TCL: Running for 25000 steps
ETITLE: TS BOND ANGLE DIHED IMPRP ELECT VDW BOUNDARY MISC KINETIC TOTAL TEMP POTENTIAL TOTAL3 TEMPAVG PRESSURE GPRESSURE VOLUME PRESSAVG GPRESSAVG
ENERGY: 100000 0.8341 3.7350 1.4543 0.0000 -20955.8781 3488.2534 0.0000 0.0000 1088.3099 -16373.2914 120.6172 -17461.6013 -16370.8827 120.6172 -375.8822 -314.6221 45010.6286 -375.8822 -314.6221
ENERGY: 105000 0.4314 3.8539 0.3585 0.0000 -20428.8999 3289.9234 0.0000 0.0000 1327.6483 -15806.6844 147.1430 -17134.3327 -15802.3458 146.9229 -543.1881 -498.2993 44974.4406 -0.3814 -0.1619
ENERGY: 110000 1.1893 3.7777 0.4200 0.0000 -20462.9122 3326.7344 0.0000 0.0000 1321.0394 -15809.7514 146.4106 -17130.7908 -15806.9308 149.9296 -366.0961 -318.2054 44962.7973 4.6481 5.0401
ENERGY: 115000 0.1403 3.4266 0.2972 0.0000 -20615.7479 3424.4594 0.0000 0.0000 1360.5026 -15826.9218 150.7843 -17187.4244 -15823.9188 149.4230 74.1044 139.1353 44670.2338 4.1157 3.9770
ENERGY: 120000 1.0860 3.2669 1.0186 0.0000 -20569.2910 3407.0074 0.0000 0.0000 1339.3283 -15817.5838 148.4375 -17156.9121 -15813.2411 151.2417 16.6489 22.8947 44759.7767 3.6064 3.7550
ENERGY: 125000 0.8183 4.1040 0.5124 0.0000 -20591.4800 3355.3999 0.0000 0.0000 1376.8191 -15853.8264 152.5926 -17230.6454 -15850.9834 149.7555 -302.6836 -263.4577 44443.6234 4.4440 4.4225
TCL: Running 50000 steps at 180 kelvin.
TCL: Setting parameter langevinTemp to 180
TCL: Running for 50000 steps
ETITLE: TS BOND ANGLE DIHED IMPRP ELECT VDW BOUNDARY MISC KINETIC TOTAL TEMP POTENTIAL TOTAL3 TEMPAVG PRESSURE GPRESSURE VOLUME PRESSAVG GPRESSAVG
ENERGY: 125000 0.8183 4.1040 0.5124 0.0000 -20591.4800 3355.3999 0.0000 0.0000 1376.1557 -15854.4898 152.5191 -17230.6454 -15851.4238 152.5191 -327.4906 -263.8173 44443.6234 -327.4906 -263.8173
ENERGY: 135000 1.7702 3.0273 0.9129 0.0000 -19958.1498 3118.6513 0.0000 0.0000 1612.9735 -15220.8146 178.7656 -16833.7881 -15217.1240 180.4249 -533.7276 -533.8506 44553.6797 -3.4290 -3.6563
ENERGY: 145000 1.5214 4.1081 0.3460 0.0000 -19990.7430 3112.4043 0.0000 0.0000 1585.0961 -15287.2672 175.6759 -16872.3632 -15282.5477 181.0357 -784.4005 -665.2196 44392.2071 3.5039 3.1628
ENERGY: 155000 0.2357 2.4427 0.4509 0.0000 -20240.6784 3293.4158 0.0000 0.0000 1659.8705 -15284.2628 183.9632 -16944.1333 -15280.0137 179.5386 176.6447 231.9385 44189.6413 -0.2167 0.5720
ENERGY: 165000 0.4621 4.1948 0.7411 0.0000 -20023.0790 3160.0804 0.0000 0.0000 1629.6587 -15227.9418 180.6148 -16857.6005 -15222.4560 179.8928 -325.9020 -274.3456 44299.5251 5.1524 4.9256
ENERGY: 175000 0.2168 5.9073 0.6160 0.0000 -20163.5805 3217.6930 0.0000 0.0000 1622.9102 -15316.2373 179.8669 -16939.1475 -15312.6410 179.5132 -186.5630 -114.5417 43915.4503 -6.9251 -7.5751
TCL: Running 50000 steps at 210 kelvin.
TCL: Setting parameter langevinTemp to 210
TCL: Running for 50000 steps
ETITLE: TS BOND ANGLE DIHED IMPRP ELECT VDW BOUNDARY MISC KINETIC TOTAL TEMP POTENTIAL TOTAL3 TEMPAVG PRESSURE GPRESSURE VOLUME PRESSAVG GPRESSAVG
ENERGY: 175000 0.2168 5.9073 0.6160 0.0000 -20163.5805 3217.6930 0.0000 0.0000 1622.1047 -15317.0428 179.7776 -16939.1475 -15313.5490 179.7776 -159.4423 -114.3347 43915.4503 -159.4423 -114.3347
ENERGY: 185000 1.0391 6.5108 0.2932 0.0000 -19246.6370 3033.6943 0.0000 0.0000 1882.5550 -14322.5445 208.6433 -16205.0995 -14320.1298 208.7387 686.5173 794.7338 43759.2628 1.9823 2.2687
ENERGY: 195000 1.5841 3.8168 2.0741 0.0000 -19169.1959 3011.3416 0.0000 0.0000 1923.8866 -14226.4926 213.2240 -16150.3792 -14221.3857 210.5331 714.3418 815.3969 43719.8418 0.7688 0.5164
ENERGY: 205000 1.1464 3.9310 0.4804 0.0000 -19094.0420 2909.9521 0.0000 0.0000 1935.2946 -14243.2375 214.4884 -16178.5321 -14238.9999 211.1686 -51.0248 41.3797 44154.2326 -0.8428 -0.9442
ENERGY: 215000 1.1699 5.3403 0.1734 0.0000 -19258.6975 3066.2816 0.0000 0.0000 1901.7149 -14284.0175 210.7668 -16185.7324 -14281.1114 209.8359 932.4111 1020.4231 43652.4763 7.0703 6.9958
ENERGY: 225000 1.7077 4.1163 0.8752 0.0000 -19076.9547 2896.6502 0.0000 0.0000 1896.0523 -14277.5531 210.1392 -16173.6054 -14272.8781 209.4429 -200.8954 -111.4050 44426.0154 2.5633 2.2022
TCL: Running 50000 steps at 240 kelvin.
TCL: Setting parameter langevinTemp to 240
TCL: Running for 50000 steps
ETITLE: TS BOND ANGLE DIHED IMPRP ELECT VDW BOUNDARY MISC KINETIC TOTAL TEMP POTENTIAL TOTAL3 TEMPAVG PRESSURE GPRESSURE VOLUME PRESSAVG GPRESSAVG
ENERGY: 225000 1.7077 4.1163 0.8752 0.0000 -19076.9547 2896.6502 0.0000 0.0000 1895.0795 -14278.5259 210.0314 -16173.6053 -14274.9451 210.0314 -184.0893 -109.9958 44426.0154 -184.0893 -109.9958
ENERGY: 235000 0.4997 4.4187 0.8639 0.0000 -18015.0160 2543.0536 0.0000 0.0000 2215.1291 -13251.0510 245.5024 -15466.1801 -13246.3900 240.7994 -311.2396 -215.6389 44470.6885 2.7412 3.0614
ENERGY: 245000 1.2708 5.6394 0.7403 0.0000 -18272.3948 2730.1833 0.0000 0.0000 2175.4917 -13359.0693 241.1094 -15534.5610 -13355.0819 239.0017 489.0863 559.8649 44418.7091 5.2774 5.1758
ENERGY: 255000 0.5781 6.1235 0.1706 0.0000 -17894.1240 2440.9463 0.0000 0.0000 2167.3394 -13278.9660 240.2059 -15446.3054 -13272.1624 242.1969 -1052.4124 -978.6210 45078.4203 6.4433 6.2879
ENERGY: 265000 1.5488 4.6862 0.5873 0.0000 -18223.1944 2674.8933 0.0000 0.0000 2165.4119 -13376.0669 239.9923 -15541.4788 -13373.7889 239.8982 164.5539 240.8003 44509.9966 9.7993 9.9407
ENERGY: 275000 1.1832 6.7088 0.6984 0.0000 -18137.9199 2660.2875 0.0000 0.0000 2179.2079 -13289.8341 241.5213 -15469.0420 -13286.4266 241.8756 23.1513 140.1234 45017.8258 8.4017 8.4411
TCL: Running 50000 steps at 270 kelvin.
TCL: Setting parameter langevinTemp to 270
TCL: Running for 50000 steps
ETITLE: TS BOND ANGLE DIHED IMPRP ELECT VDW BOUNDARY MISC KINETIC TOTAL TEMP POTENTIAL TOTAL3 TEMPAVG PRESSURE GPRESSURE VOLUME PRESSAVG GPRESSAVG
ENERGY: 275000 1.1832 6.7088 0.6984 0.0000 -18137.9199 2660.2875 0.0000 0.0000 2178.1192 -13290.9228 241.4006 -15469.0420 -13287.6579 241.4006 55.1267 140.4753 45017.8258 55.1267 140.4753
ENERGY: 285000 1.9475 4.2499 0.5182 0.0000 -17419.7976 2517.5211 0.0000 0.0000 2410.5517 -12485.0092 267.1611 -14895.5609 -12481.0974 269.9960 492.9872 605.2094 45150.4970 -2.6151 -2.2025
ENERGY: 295000 0.8510 4.1888 0.5494 0.0000 -17322.2442 2430.4721 0.0000 0.0000 2413.6166 -12472.5662 267.5007 -14886.1828 -12469.1904 270.3041 241.9130 324.6834 44965.1976 -0.6592 -1.3978
ENERGY: 305000 2.2328 4.1119 0.7092 0.0000 -17220.1263 2329.4670 0.0000 0.0000 2440.4886 -12443.1167 270.4790 -14883.6053 -12437.9261 268.4302 -326.7844 -242.8194 45404.4878 3.7674 3.6142
ENERGY: 315000 1.1146 6.2546 1.0069 0.0000 -17361.7635 2412.4301 0.0000 0.0000 2421.8805 -12519.0767 268.4166 -14940.9573 -12513.0323 267.4910 219.8156 272.8253 44787.3147 3.9028 3.7880
ENERGY: 325000 1.0192 6.6547 0.9131 0.0000 -17264.0417 2425.2260 0.0000 0.0000 2440.5197 -12389.7092 270.4824 -14830.2288 -12382.5517 271.0263 251.6895 312.4795 45124.7182 -1.5279 -1.4421
TCL: Running 1000000 steps at 300 kelvin.
TCL: Setting parameter langevinTemp to 300
TCL: Running for 1000000 steps
ETITLE: TS BOND ANGLE DIHED IMPRP ELECT VDW BOUNDARY MISC KINETIC TOTAL TEMP POTENTIAL TOTAL3 TEMPAVG PRESSURE GPRESSURE VOLUME PRESSAVG GPRESSAVG
ENERGY: 325000 1.0192 6.6547 0.9131 0.0000 -17264.0417 2425.2260 0.0000 0.0000 2439.3045 -12390.9243 270.3477 -14830.2288 -12387.6812 270.3477 222.5593 312.7494 45124.7182 222.5593 312.7494
ENERGY: 525000 1.1785 6.5953 0.5607 0.0000 -16328.6369 2180.6143 0.0000 0.0000 2689.3533 -11450.3349 298.0606 -14139.6882 -11446.5465 300.0127 173.6312 230.0163 46448.6615 4.2985 4.0363
ENERGY: 725000 1.2650 5.5561 0.3958 0.0000 -16508.5860 2155.0381 0.0000 0.0000 2714.8014 -11631.5296 300.8810 -14346.3310 -11626.6024 301.1260 -418.0470 -349.6670 46565.0255 -3.6356 -3.4764
ENERGY: 925000 0.4237 6.7678 0.4306 0.0000 -16457.4833 2212.0271 0.0000 0.0000 2651.3570 -11586.4771 293.8495 -14237.8341 -11582.6759 300.8679 -38.7744 31.8531 46898.5829 4.5130 4.4955
ENERGY: 1125000 1.1014 6.5164 0.4405 0.0000 -16368.4496 2143.2227 0.0000 0.0000 2741.7498 -11475.4187 303.8677 -14217.1686 -11472.6336 299.6696 -318.0849 -307.8936 47189.0832 7.1143 6.8195
ENERGY: 1325000 1.5135 9.1399 3.3196 0.0000 -16352.2610 2114.6959 0.0000 0.0000 2741.5545 -11482.0375 303.8461 -14223.5920 -11477.0655 299.1543 -700.5113 -653.0244 47256.1176 4.7044 5.0531
TCL: Exiting due to exit command.
