Info: SIMULATION PARAMETERS:
Info: TIMESTEP               2
Info: NUMBER OF STEPS        0
Info: STEPS PER CYCLE        10
Info: PERIODIC CELL BASIS 1  41.123 0 0
Info: PERIODIC CELL BASIS 2  0 39.757 0
Info: PERIODIC CELL BASIS 3  0 0 41.598
Info: PERIODIC CELL CENTER   0 0 0
Info: WRAPPING WATERS AROUND PERIODIC BOUNDARIES ON OUTPUT.
Info: WRAPPING ALL CLUSTERS AROUND PERIODIC BOUNDARIES ON OUTPUT.
Info: FIRST LDB TIMESTEP     50
Info: LAST LDB TIMESTEP     -1
Info: HOM BACKGROUND SCALING 1
Info: PME BACKGROUND SCALING 1
Info: MIN ATOMS PER PATCH    40
Info: EMPTY PATCH LOAD       40 ATOMS
Info: INITIAL TEMPERATURE    300
Info: CENTER OF MASS MOVING INITIALLY? NO
Info: DIELECTRIC             1
Info: EXCLUDE                SCALED ONE-FOUR
Info: 1-4 ELECTROSTATICS SCALED BY 0.833333
Info: MODIFIED 1-4 VDW PARAMETERS WILL BE USED
Info: DCD FILENAME           mobley_5063386_min.dcd
Info: DCD FREQUENCY          5000
Info: DCD FIRST STEP         5000
Info: DCD FILE WILL CONTAIN UNIT CELL DATA
Info: XST FILENAME           mobley_5063386_min.xst
Info: XST FREQUENCY          5000
Info: NO VELOCITY DCD OUTPUT
Info: NO FORCE DCD OUTPUT
Info: OUTPUT FILENAME        mobley_5063386_min
Info: BINARY OUTPUT FILES WILL BE USED
Info: RESTART FILENAME       mobley_5063386_min.restart
Info: RESTART FREQUENCY      5000
Info: BINARY RESTART FILES WILL BE USED
Info: CUTOFF                 9
Info: PAIRLIST DISTANCE      11
Info: PAIRLIST SHRINK RATE   0.01
Info: PAIRLIST GROW RATE     0.01
Info: PAIRLIST TRIGGER       0.3
Info: PAIRLISTS PER CYCLE    2
Info: PAIRLISTS ENABLED
Info: MARGIN                 8
Info: HYDROGEN GROUP CUTOFF  2.5
Info: PATCH DIMENSION        21.5
Info: ENERGY OUTPUT STEPS    5000
Info: ENERGY EVALUATION STEPS    5000
Info: OUTPUT ENERGY PRECISION 4
Info: CROSSTERM ENERGY INCLUDED IN DIHEDRAL
Info: TIMING OUTPUT STEPS    50000
Info: PRESSURE OUTPUT STEPS  5000
Info: LANGEVIN DYNAMICS ACTIVE
Info: LANGEVIN TEMPERATURE   300
Info: LANGEVIN USING BBK INTEGRATOR
Info: LANGEVIN DAMPING COEFFICIENT IS 1 INVERSE PS
Info: LANGEVIN DYNAMICS APPLIED TO HYDROGENS
Info: LANGEVIN PISTON PRESSURE CONTROL ACTIVE
Info:        TARGET PRESSURE IS 1.01325 BAR
Info:     OSCILLATION PERIOD IS 50 FS
Info:             DECAY TIME IS 25 FS
Info:     PISTON TEMPERATURE IS 300 K
Info:       PRESSURE CONTROL IS GROUP-BASED
Info:    INITIAL STRAIN RATE IS 0 0 0
Info:       CELL FLUCTUATION IS ISOTROPIC
Info: PARTICLE MESH EWALD (PME) ACTIVE
Info: PME TOLERANCE               1e-06
Info: PME EWALD COEFFICIENT       0.348832
Info: PME INTERPOLATION ORDER     4
Info: PME GRID DIMENSIONS         44 40 44
Info: PME MAXIMUM GRID SPACING    1
Info: FULL ELECTROSTATIC EVALUATION FREQUENCY      2
Info: USING VERLET I (r-RESPA) MTS SCHEME.
Info: C1 SPLITTING OF LONG RANGE ELECTROSTATICS
Info: PLACING ATOMS IN PATCHES BY HYDROGEN GROUPS
Info: RIGID BONDS TO HYDROGEN : ALL
Info:         ERROR TOLERANCE : 1e-08
Info:          MAX ITERATIONS : 100
Info: RIGID WATER USING SETTLE ALGORITHM
Info: RANDOM NUMBER SEED     1741347015
Info: USE HYDROGEN BONDS?    NO
Info: Using AMBER format force field!
Info: AMBER PARM FILE        mobley_5063386.prmtop
Info: COORDINATE PDB         mobley_5063386.pdb
Info: Exclusions will be read from PARM file!
Info: SCNB (VDW SCALING)     2
Info: USING ARITHMETIC MEAN TO COMBINE L-J SIGMA PARAMETERS
Info: SUMMARY OF PARAMETERS:
Info: 8 BONDS
Info: 7 ANGLES
Info:   7 HARMONIC
Info:   0 COSINE-BASED
Info: 4 DIHEDRAL
Info: 0 IMPROPER
Info: 0 CROSSTERM
Info: 0 VDW
Info: 36 VDW_PAIRS
Info: 0 NBTHOLE_PAIRS
Info: STRUCTURE SUMMARY:
Info: 4941 ATOMS
Info: 4941 BONDS
Info: 22 ANGLES
Info: 34 DIHEDRALS
Info: 0 IMPROPERS
Info: 0 CROSSTERMS
Info: 4990 EXCLUSIONS
Info: 4931 RIGID BONDS
Info: 9892 DEGREES OF FREEDOM
Info: 1652 HYDROGEN GROUPS
Info: 3 ATOMS IN LARGEST HYDROGEN GROUP
Info: 1652 MIGRATION GROUPS
Info: 3 ATOMS IN LARGEST MIGRATION GROUP
Info: TOTAL MASS = 29721.4 amu
Info: TOTAL CHARGE = -9.99495e-05 e
Info: MASS DENSITY = 0.7257 g/cm^3
Info: ATOM DENSITY = 0.0726514 atoms/A^3
Info: ADDED 0 IMPLICIT EXCLUSIONS
Info: NONBONDED TABLE R-SQUARED SPACING: 0.0625
Info: NONBONDED TABLE SIZE: 705 POINTS
Info: REMOVING COM VELOCITY 0.106748 0.0422696 -0.0503976
TCL: Minimizing for 2000 steps
ETITLE: TS BOND ANGLE DIHED IMPRP ELECT VDW BOUNDARY MISC KINETIC TOTAL TEMP POTENTIAL TOTAL3 TEMPAVG PRESSURE GPRESSURE VOLUME PRESSAVG GPRESSAVG
ENERGY: 0 0.9524 0.5787 5.7601 0.0000 -15484.0857 1773.0159 0.0000 0.0000 0.0000 -13703.7787 0.0000 -13703.7787 -13703.7787 0.0000 11327.9585 -15860.5235 68009.6980 11327.9585 -15860.5235
ENERGY: 400 3.1117 1.9711 4.1653 0.0000 -20764.0594 3018.4685 0.0000 0.0000 0.0000 -17736.3429 0.0000 -17736.3429 -17736.3429 0.0000 15904.7987 15691.7407 68009.6980 15904.7987 15691.7407
ENERGY: 800 1.1750 0.4052 4.6362 0.0000 -21768.5764 3494.4688 0.0000 0.0000 0.0000 -18267.8912 0.0000 -18267.8912 -18267.8912 0.0000 18119.3140 17931.8676 68009.6980 18119.3140 17931.8676
ENERGY: 1200 0.5521 0.3647 3.1924 0.0000 -22311.0671 3761.1584 0.0000 0.0000 0.0000 -18545.7995 0.0000 -18545.7995 -18545.7995 0.0000 19350.3140 19150.2808 68009.6980 19350.3140 19150.2808
ENERGY: 1600 2.2503 1.4130 3.0502 0.0000 -22542.2034 3864.3382 0.0000 0.0000 0.0000 -18671.1516 0.0000 -18671.1516 -18671.1516 0.0000 19867.3823 19640.0602 68009.6980 19867.3823 19640.0602
ENERGY: 2000 0.4793 0.4096 3.3746 0.0000 -22659.4734 3917.2627 0.0000 0.0000 0.0000 -18737.9472 0.0000 -18737.9472 -18737.9472 0.0000 20136.0759 19920.6911 68009.6980 20136.0759 19920.6911
TCL: Exiting due to exit command.
Info: NAMD 3.0.1 for Linux-x86_64-multicore
Info: Please visit http://www.ks.uiuc.edu/Research/namd/
Info: for updates, documentation, and support information.
Info: Please cite Phillips et al., J. Chem. Phys. 153:044130 (2020) doi:10.1063/5.0014475
Info: in all publications reporting results obtained with NAMD.
Info: Based on Charm++/Converse 80000 for multicore-linux-x86_64-gcc
Info: Built Mon Oct 14 11:11:06 CDT 2024 by dhardy on athine.ks.uiuc.edu
Info: 1 NAMD  3.0.1  Linux-x86_64-multicore  16    k012  z5358697
Info: Running on 16 processors, 1 nodes, 1 physical nodes.
Info: CPU topology information available.
Info: Charm++/Converse parallel runtime startup completed at 0.00969124 s
Info: 1043.45 MB of memory in use based on /proc/self/stat
Info: Configuration file is mobley_5063386_equil.namd
Info: Working in the current directory /srv/scratch/z5358697/prod_prep_6/5063386
TCL: Running 25000 steps at 30 kelvin.
TCL: Suspending until startup complete.
Info: SIMULATION PARAMETERS:
Info: TIMESTEP               2
Info: NUMBER OF STEPS        0
Info: STEPS PER CYCLE        10
Info: PERIODIC CELL BASIS 1  41.123 0 0
Info: PERIODIC CELL BASIS 2  0 39.757 0
Info: PERIODIC CELL BASIS 3  0 0 41.598
Info: PERIODIC CELL CENTER   0 0 0
Info: WRAPPING WATERS AROUND PERIODIC BOUNDARIES ON OUTPUT.
Info: WRAPPING ALL CLUSTERS AROUND PERIODIC BOUNDARIES ON OUTPUT.
Info: FIRST LDB TIMESTEP     50
Info: LAST LDB TIMESTEP     -1
Info: HOM BACKGROUND SCALING 1
Info: PME BACKGROUND SCALING 1
Info: MIN ATOMS PER PATCH    40
Info: EMPTY PATCH LOAD       40 ATOMS
Info: INITIAL TEMPERATURE    300
Info: CENTER OF MASS MOVING INITIALLY? NO
Info: DIELECTRIC             1
Info: EXCLUDE                SCALED ONE-FOUR
Info: 1-4 ELECTROSTATICS SCALED BY 0.833333
Info: MODIFIED 1-4 VDW PARAMETERS WILL BE USED
Info: DCD FILENAME           mobley_5063386_equil.dcd
Info: DCD FREQUENCY          5000
Info: DCD FIRST STEP         5000
Info: DCD FILE WILL CONTAIN UNIT CELL DATA
Info: XST FILENAME           mobley_5063386_equil.xst
Info: XST FREQUENCY          5000
Info: NO VELOCITY DCD OUTPUT
Info: NO FORCE DCD OUTPUT
Info: OUTPUT FILENAME        mobley_5063386_equil
Info: BINARY OUTPUT FILES WILL BE USED
Info: RESTART FILENAME       mobley_5063386_equil.restart
Info: RESTART FREQUENCY      5000
Info: BINARY RESTART FILES WILL BE USED
Info: CUTOFF                 9
Info: PAIRLIST DISTANCE      11
Info: PAIRLIST SHRINK RATE   0.01
Info: PAIRLIST GROW RATE     0.01
Info: PAIRLIST TRIGGER       0.3
Info: PAIRLISTS PER CYCLE    2
Info: PAIRLISTS ENABLED
Info: MARGIN                 8
Info: HYDROGEN GROUP CUTOFF  2.5
Info: PATCH DIMENSION        21.5
Info: ENERGY OUTPUT STEPS    5000
Info: ENERGY EVALUATION STEPS    5000
Info: OUTPUT ENERGY PRECISION 4
Info: CROSSTERM ENERGY INCLUDED IN DIHEDRAL
Info: TIMING OUTPUT STEPS    50000
Info: PRESSURE OUTPUT STEPS  5000
Info: LANGEVIN DYNAMICS ACTIVE
Info: LANGEVIN TEMPERATURE   30
Info: LANGEVIN USING BBK INTEGRATOR
Info: LANGEVIN DAMPING COEFFICIENT IS 1 INVERSE PS
Info: LANGEVIN DYNAMICS APPLIED TO HYDROGENS
Info: LANGEVIN PISTON PRESSURE CONTROL ACTIVE
Info:        TARGET PRESSURE IS 1.01325 BAR
Info:     OSCILLATION PERIOD IS 50 FS
Info:             DECAY TIME IS 25 FS
Info:     PISTON TEMPERATURE IS 300 K
Info:       PRESSURE CONTROL IS GROUP-BASED
Info:    INITIAL STRAIN RATE IS 0 0 0
Info:       CELL FLUCTUATION IS ISOTROPIC
Info: PARTICLE MESH EWALD (PME) ACTIVE
Info: PME TOLERANCE               1e-06
Info: PME EWALD COEFFICIENT       0.348832
Info: PME INTERPOLATION ORDER     4
Info: PME GRID DIMENSIONS         44 40 44
Info: PME MAXIMUM GRID SPACING    1
Info: FULL ELECTROSTATIC EVALUATION FREQUENCY      2
Info: USING VERLET I (r-RESPA) MTS SCHEME.
Info: C1 SPLITTING OF LONG RANGE ELECTROSTATICS
Info: PLACING ATOMS IN PATCHES BY HYDROGEN GROUPS
Info: RIGID BONDS TO HYDROGEN : ALL
Info:         ERROR TOLERANCE : 1e-08
Info:          MAX ITERATIONS : 100
Info: RIGID WATER USING SETTLE ALGORITHM
Info: RANDOM NUMBER SEED     1741347031
Info: USE HYDROGEN BONDS?    NO
Info: Using AMBER format force field!
Info: AMBER PARM FILE        mobley_5063386.prmtop
Info: COORDINATE PDB         mobley_5063386.pdb
Info: Exclusions will be read from PARM file!
Info: SCNB (VDW SCALING)     2
Info: USING ARITHMETIC MEAN TO COMBINE L-J SIGMA PARAMETERS
Info: BINARY COORDINATES     mobley_5063386_min.coor
Info: SUMMARY OF PARAMETERS:
Info: 8 BONDS
Info: 7 ANGLES
Info:   7 HARMONIC
Info:   0 COSINE-BASED
Info: 4 DIHEDRAL
Info: 0 IMPROPER
Info: 0 CROSSTERM
Info: 0 VDW
Info: 36 VDW_PAIRS
Info: 0 NBTHOLE_PAIRS
Info: STRUCTURE SUMMARY:
Info: 4941 ATOMS
Info: 4941 BONDS
Info: 22 ANGLES
Info: 34 DIHEDRALS
Info: 0 IMPROPERS
Info: 0 CROSSTERMS
Info: 4990 EXCLUSIONS
Info: 4931 RIGID BONDS
Info: 9892 DEGREES OF FREEDOM
Info: 1652 HYDROGEN GROUPS
Info: 3 ATOMS IN LARGEST HYDROGEN GROUP
Info: 1652 MIGRATION GROUPS
Info: 3 ATOMS IN LARGEST MIGRATION GROUP
Info: TOTAL MASS = 29721.4 amu
Info: TOTAL CHARGE = -9.99495e-05 e
Info: MASS DENSITY = 0.7257 g/cm^3
Info: ATOM DENSITY = 0.0726514 atoms/A^3
Info: ADDED 0 IMPLICIT EXCLUSIONS
Info: NONBONDED TABLE R-SQUARED SPACING: 0.0625
Info: NONBONDED TABLE SIZE: 705 POINTS
Info: REMOVING COM VELOCITY 0.0155236 0.0494375 0.037154
TCL: Running for 25000 steps
ETITLE: TS BOND ANGLE DIHED IMPRP ELECT VDW BOUNDARY MISC KINETIC TOTAL TEMP POTENTIAL TOTAL3 TEMPAVG PRESSURE GPRESSURE VOLUME PRESSAVG GPRESSAVG
ENERGY: 0 0.4793 0.4096 3.3746 0.0000 -22659.4734 3917.2627 0.0000 0.0000 2959.7961 -15778.1511 301.1397 -18737.9472 -15777.5452 301.1397 239.4487 279.4206 68009.6980 239.4487 279.4206
ENERGY: 5000 0.8222 0.3541 3.5552 0.0000 -23665.4735 4032.1398 0.0000 0.0000 293.1105 -19335.4917 29.8221 -19628.6022 -19334.6291 47.9699 -584.5500 -511.3645 48312.9663 -0.1590 -0.1649
ENERGY: 10000 0.0941 0.4559 4.0533 0.0000 -23857.6251 4184.7339 0.0000 0.0000 280.7681 -19387.5199 28.5663 -19668.2881 -19386.8588 30.0346 144.7247 233.4305 48004.2504 3.7935 3.9475
ENERGY: 15000 0.8918 0.7636 3.7854 0.0000 -23816.4912 4136.8846 0.0000 0.0000 299.3622 -19374.8035 30.4581 -19674.1657 -19374.0895 30.0341 -159.8060 -73.5001 48201.9343 -0.5066 -0.5065
ENERGY: 20000 0.6219 1.0752 4.1511 0.0000 -23878.1033 4177.0220 0.0000 0.0000 296.0740 -19399.1591 30.1236 -19695.2331 -19398.3582 30.2302 -55.1689 6.3843 48241.8430 2.7089 2.6373
ENERGY: 25000 0.7081 0.7544 3.6148 0.0000 -23710.7299 4002.0350 0.0000 0.0000 296.4380 -19407.1797 30.1606 -19703.6177 -19406.5791 29.8096 -942.6507 -864.2396 48456.3778 1.3874 1.2964
TCL: Running 25000 steps at 60 kelvin.
TCL: Setting parameter langevinTemp to 60
TCL: Running for 25000 steps
ETITLE: TS BOND ANGLE DIHED IMPRP ELECT VDW BOUNDARY MISC KINETIC TOTAL TEMP POTENTIAL TOTAL3 TEMPAVG PRESSURE GPRESSURE VOLUME PRESSAVG GPRESSAVG
ENERGY: 25000 0.7081 0.7544 3.6148 0.0000 -23710.7299 4002.0350 0.0000 0.0000 296.2932 -19407.3244 30.1459 -19703.6177 -19406.5177 30.1459 -929.8822 -864.2993 48456.3778 -929.8822 -864.2993
ENERGY: 30000 1.0315 0.8694 3.5069 0.0000 -23425.7045 3986.5739 0.0000 0.0000 593.4148 -18840.3079 60.3760 -19433.7227 -18838.7016 57.4533 -351.3474 -281.7963 48491.5317 2.6624 2.9830
ENERGY: 35000 1.3169 1.4558 1.9189 0.0000 -23669.9108 4202.7603 0.0000 0.0000 582.6397 -18879.8191 59.2797 -19462.4588 -18877.9326 59.9700 677.0316 748.8725 48113.2582 2.5985 2.6641
ENERGY: 40000 0.4364 1.3789 4.3661 0.0000 -23541.9819 4048.0910 0.0000 0.0000 599.0176 -18888.6919 60.9461 -19487.7095 -18887.0081 60.0429 -150.0923 -86.3030 48450.9163 1.3660 1.2656
ENERGY: 45000 0.7219 0.6761 4.6546 0.0000 -23463.2899 3955.5677 0.0000 0.0000 587.8236 -18913.8460 59.8072 -19501.6697 -18912.3297 59.7477 -586.9997 -525.6812 48344.8010 7.7026 7.8475
ENERGY: 50000 0.7012 1.0803 3.9461 0.0000 -23661.6196 4134.7078 0.0000 0.0000 592.8628 -18928.3215 60.3199 -19521.1843 -18926.7900 60.3324 211.8929 307.6951 48157.9835 6.2930 6.3369
TCL: Running 25000 steps at 90 kelvin.
TCL: Setting parameter langevinTemp to 90
TCL: Running for 25000 steps
ETITLE: TS BOND ANGLE DIHED IMPRP ELECT VDW BOUNDARY MISC KINETIC TOTAL TEMP POTENTIAL TOTAL3 TEMPAVG PRESSURE GPRESSURE VOLUME PRESSAVG GPRESSAVG
ENERGY: 50000 0.7012 1.0803 3.9461 0.0000 -23661.6196 4134.7078 0.0000 0.0000 592.5651 -18928.6192 60.2896 -19521.1843 -18927.3378 60.2896 256.8034 307.3828 48157.9835 256.8034 307.3828
ENERGY: 55000 0.8441 1.3653 4.2836 0.0000 -23081.8382 3853.3994 0.0000 0.0000 889.4118 -18332.5340 90.4918 -19221.9458 -18330.4137 87.1166 -450.8450 -379.9286 48572.7881 6.2437 6.1500
ENERGY: 60000 1.7277 1.8044 2.6921 0.0000 -23011.1171 3793.5351 0.0000 0.0000 873.7069 -18337.6508 88.8939 -19211.3577 -18336.1156 90.6577 -786.4701 -700.3234 48618.7163 7.4574 7.0378
ENERGY: 65000 0.6192 1.3584 3.2523 0.0000 -23233.7018 3954.6108 0.0000 0.0000 889.2149 -18384.6462 90.4718 -19273.8611 -18381.9789 89.9479 -3.1398 90.1497 48298.8679 -1.7447 -1.7110
ENERGY: 70000 1.1320 1.7509 4.0225 0.0000 -23119.3199 3832.9964 0.0000 0.0000 887.1301 -18392.2880 90.2596 -19279.4181 -18389.8024 89.9437 -586.3376 -543.8354 48388.9374 1.4005 1.0099
ENERGY: 75000 0.5164 0.9527 3.8581 0.0000 -23108.3408 3832.5317 0.0000 0.0000 877.0108 -18393.4711 89.2301 -19270.4819 -18391.5988 90.2199 -563.2882 -479.3902 48393.4402 7.2825 6.5995
TCL: Running 25000 steps at 120 kelvin.
TCL: Setting parameter langevinTemp to 120
TCL: Running for 25000 steps
ETITLE: TS BOND ANGLE DIHED IMPRP ELECT VDW BOUNDARY MISC KINETIC TOTAL TEMP POTENTIAL TOTAL3 TEMPAVG PRESSURE GPRESSURE VOLUME PRESSAVG GPRESSAVG
ENERGY: 75000 0.5164 0.9527 3.8581 0.0000 -23108.3408 3832.5317 0.0000 0.0000 876.5674 -18393.9145 89.1850 -19270.4819 -18392.0055 89.1850 -544.8548 -479.5649 48393.4402 -544.8548 -479.5649
ENERGY: 80000 1.6878 2.3262 5.8161 0.0000 -22699.4783 3740.9084 0.0000 0.0000 1208.9062 -17739.8335 122.9982 -18948.7396 -17736.0407 117.8915 -384.5077 -315.2233 48654.8768 0.3763 0.3636
ENERGY: 85000 1.9612 1.8241 4.7647 0.0000 -22841.7477 3799.9992 0.0000 0.0000 1171.0284 -17862.1700 119.1444 -19033.1984 -17859.4215 119.9534 -151.5159 -60.9296 48446.8186 5.1041 5.1850
ENERGY: 90000 1.1034 1.3685 4.8339 0.0000 -22833.2616 3806.1158 0.0000 0.0000 1180.6438 -17839.1961 120.1227 -19019.8399 -17835.4847 120.5009 -105.6402 -50.1523 48237.1099 -5.1442 -5.0682
ENERGY: 95000 1.5046 1.7202 4.4095 0.0000 -22986.8379 3916.8422 0.0000 0.0000 1204.2134 -17858.1481 122.5208 -19062.3615 -17855.0035 120.4182 428.5708 472.6255 48078.5372 3.2851 3.7514
ENERGY: 100000 1.3308 0.7428 4.6238 0.0000 -22617.5013 3553.8169 0.0000 0.0000 1178.9943 -17877.9926 119.9549 -19056.9870 -17874.9535 120.3792 -1499.6517 -1448.9980 48717.6791 4.7960 4.3571
TCL: Running 25000 steps at 150 kelvin.
TCL: Setting parameter langevinTemp to 150
TCL: Running for 25000 steps
ETITLE: TS BOND ANGLE DIHED IMPRP ELECT VDW BOUNDARY MISC KINETIC TOTAL TEMP POTENTIAL TOTAL3 TEMPAVG PRESSURE GPRESSURE VOLUME PRESSAVG GPRESSAVG
ENERGY: 100000 1.3308 0.7428 4.6238 0.0000 -22617.5013 3553.8169 0.0000 0.0000 1178.4169 -17878.5701 119.8961 -19056.9870 -17875.4747 119.8961 -1505.4272 -1449.1642 48717.6791 -1505.4272 -1449.1642
ENERGY: 105000 3.3599 2.0114 4.9201 0.0000 -22213.7523 3523.5506 0.0000 0.0000 1459.2519 -17220.6585 148.4693 -18679.9104 -17215.8945 146.7792 -848.2428 -812.0841 48714.8235 0.9166 0.5561
ENERGY: 110000 1.7742 1.6688 4.1749 0.0000 -22417.7263 3710.5768 0.0000 0.0000 1501.0186 -17198.5129 152.7187 -18699.5315 -17194.3370 151.3241 71.5164 128.9667 48369.6667 4.0221 3.7493
ENERGY: 115000 1.5158 1.5799 3.9737 0.0000 -22529.8815 3810.7344 0.0000 0.0000 1477.7678 -17234.3098 150.3531 -18712.0776 -17230.6387 150.7839 663.0848 736.3220 48079.7866 2.8017 2.2625
ENERGY: 120000 3.4004 2.4308 2.5221 0.0000 -22368.4801 3600.0294 0.0000 0.0000 1452.1292 -17307.9682 147.7446 -18760.0974 -17305.3458 150.6181 -387.4522 -335.6574 48152.4511 8.3532 8.6499
ENERGY: 125000 1.9961 1.4087 2.9783 0.0000 -22404.0324 3596.8643 0.0000 0.0000 1444.3475 -17356.4377 146.9528 -18800.7851 -17354.4191 149.2985 -579.0093 -539.0900 48315.5950 0.1002 0.3427
TCL: Running 50000 steps at 180 kelvin.
TCL: Setting parameter langevinTemp to 180
TCL: Running for 50000 steps
ETITLE: TS BOND ANGLE DIHED IMPRP ELECT VDW BOUNDARY MISC KINETIC TOTAL TEMP POTENTIAL TOTAL3 TEMPAVG PRESSURE GPRESSURE VOLUME PRESSAVG GPRESSAVG
ENERGY: 125000 1.9961 1.4087 2.9783 0.0000 -22404.0324 3596.8643 0.0000 0.0000 1443.6177 -17357.1674 146.8786 -18800.7851 -17354.0024 146.8786 -588.9363 -539.9900 48315.5950 -588.9363 -539.9900
ENERGY: 135000 1.7572 1.9541 4.8726 0.0000 -21945.3605 3528.9513 0.0000 0.0000 1763.0616 -16644.7636 179.3799 -18407.8252 -16640.5976 178.7425 -28.7986 17.1592 48082.1859 2.2908 2.2144
ENERGY: 145000 1.5591 2.3279 4.0997 0.0000 -21929.4875 3490.3392 0.0000 0.0000 1753.8831 -16677.2785 178.4460 -18431.1616 -16670.4480 179.8130 -413.1644 -357.2126 48408.5625 10.5166 10.2969
ENERGY: 155000 1.6475 1.5585 3.5197 0.0000 -21767.2618 3391.2409 0.0000 0.0000 1791.7758 -16577.5193 182.3014 -18369.2951 -16573.9315 179.7603 -601.5820 -496.7504 48149.4590 2.0992 2.0403
ENERGY: 165000 2.1112 2.9243 3.7183 0.0000 -21955.9316 3558.5992 0.0000 0.0000 1780.2540 -16608.3245 181.1291 -18388.5785 -16603.2138 179.7896 50.8293 139.1810 48363.7049 5.6901 5.6005
ENERGY: 175000 3.9216 2.7766 6.8232 0.0000 -22071.3095 3656.2239 0.0000 0.0000 1756.1518 -16645.4124 178.6769 -18401.5642 -16640.8357 179.2602 446.4685 500.4495 48365.9244 -0.3004 -0.3153
TCL: Running 50000 steps at 210 kelvin.
TCL: Setting parameter langevinTemp to 210
TCL: Running for 50000 steps
ETITLE: TS BOND ANGLE DIHED IMPRP ELECT VDW BOUNDARY MISC KINETIC TOTAL TEMP POTENTIAL TOTAL3 TEMPAVG PRESSURE GPRESSURE VOLUME PRESSAVG GPRESSAVG
ENERGY: 175000 3.9216 2.7766 6.8232 0.0000 -22071.3095 3656.2239 0.0000 0.0000 1755.2819 -16646.2823 178.5884 -18401.5642 -16643.4327 178.5884 438.1719 500.8073 48365.9244 438.1719 500.8073
ENERGY: 185000 3.1062 2.2061 5.7633 0.0000 -20870.8051 3123.6004 0.0000 0.0000 2043.2237 -15692.9054 207.8845 -17736.1291 -15687.6966 210.0300 -526.7769 -420.1100 48171.7689 0.0904 -0.1749
ENERGY: 195000 3.7137 4.5246 4.3083 0.0000 -20780.3976 3110.1240 0.0000 0.0000 2104.9638 -15552.7632 214.1662 -17657.7270 -15548.1007 208.8833 -592.6403 -535.9371 48864.1681 1.7673 1.4705
ENERGY: 205000 1.9362 1.5348 4.8840 0.0000 -20815.0268 3160.5572 0.0000 0.0000 2035.5943 -15610.5203 207.1083 -17646.1146 -15605.6917 209.9741 -63.5900 -18.6122 48088.6987 6.8225 6.6515
ENERGY: 215000 1.7245 3.3869 7.9825 0.0000 -20831.6323 3129.2628 0.0000 0.0000 2062.4857 -15626.7899 209.8443 -17689.2756 -15620.3018 209.2188 -209.7914 -172.1393 48115.3428 4.9592 5.0416
ENERGY: 225000 3.4598 2.3557 4.7580 0.0000 -21196.6928 3462.1093 0.0000 0.0000 2070.7580 -15653.2519 210.6860 -17724.0099 -15651.4829 208.4529 1265.7093 1373.1491 47927.0167 6.2209 5.7642
TCL: Running 50000 steps at 240 kelvin.
TCL: Setting parameter langevinTemp to 240
TCL: Running for 50000 steps
ETITLE: TS BOND ANGLE DIHED IMPRP ELECT VDW BOUNDARY MISC KINETIC TOTAL TEMP POTENTIAL TOTAL3 TEMPAVG PRESSURE GPRESSURE VOLUME PRESSAVG GPRESSAVG
ENERGY: 225000 3.4598 2.3557 4.7580 0.0000 -21196.6928 3462.1093 0.0000 0.0000 2069.7513 -15654.2586 210.5835 -17724.0099 -15651.6470 210.5835 1301.2727 1373.8280 47927.0167 1301.2727 1373.8280
ENERGY: 235000 4.3409 2.8881 9.7409 0.0000 -19770.9641 2840.4149 0.0000 0.0000 2319.4763 -14594.1030 235.9914 -16913.5793 -14589.3320 239.8637 -197.1244 -144.1779 48674.8238 -1.1211 -0.6989
ENERGY: 245000 5.5755 3.8239 2.9920 0.0000 -19670.7826 2811.0360 0.0000 0.0000 2393.7631 -14453.5921 243.5496 -16847.3552 -14450.4841 239.3619 -318.0662 -219.0937 48954.1258 1.8287 2.3325
ENERGY: 255000 2.4253 2.6522 6.3535 0.0000 -19625.5193 2738.4320 0.0000 0.0000 2386.5312 -14489.1251 242.8138 -16875.6563 -14483.8050 240.5950 -606.0238 -519.8718 48591.9908 0.4204 0.7695
ENERGY: 265000 3.6147 3.3310 3.8964 0.0000 -19760.0705 2871.9849 0.0000 0.0000 2289.2885 -14587.9550 232.9200 -16877.2435 -14584.7467 239.7801 -5.8008 46.7043 48829.3326 -0.3318 -0.3359
ENERGY: 275000 1.7620 3.1818 5.8747 0.0000 -19698.6532 2859.6480 0.0000 0.0000 2365.2347 -14462.9521 240.6470 -16828.1868 -14457.7663 241.8335 108.9320 195.9532 48566.3728 6.7122 6.1916
TCL: Running 50000 steps at 270 kelvin.
TCL: Setting parameter langevinTemp to 270
TCL: Running for 50000 steps
ETITLE: TS BOND ANGLE DIHED IMPRP ELECT VDW BOUNDARY MISC KINETIC TOTAL TEMP POTENTIAL TOTAL3 TEMPAVG PRESSURE GPRESSURE VOLUME PRESSAVG GPRESSAVG
ENERGY: 275000 1.7620 3.1818 5.8747 0.0000 -19698.6532 2859.6480 0.0000 0.0000 2364.0372 -14464.1496 240.5252 -16828.1868 -14461.0501 240.5252 112.1447 196.2682 48566.3728 112.1447 196.2682
ENERGY: 285000 1.8618 3.5741 2.8661 0.0000 -18897.7068 2621.0766 0.0000 0.0000 2687.8850 -13580.4432 273.4746 -16268.3282 -13575.3116 269.1427 -228.9814 -105.8337 49860.5128 3.0967 3.0695
ENERGY: 295000 3.5602 4.0931 8.8966 0.0000 -18809.5069 2590.5775 0.0000 0.0000 2680.7618 -13521.6177 272.7498 -16202.3795 -13515.7949 270.5129 -241.2072 -149.7633 49526.1196 -4.1523 -3.7749
ENERGY: 305000 2.6532 1.5138 8.9462 0.0000 -18645.8512 2494.0666 0.0000 0.0000 2703.6195 -13435.0519 275.0755 -16138.6714 -13429.2894 271.7267 -466.9455 -366.0952 49540.1939 -0.7890 -0.3770
ENERGY: 315000 1.3042 2.4150 4.7258 0.0000 -18860.9814 2607.5357 0.0000 0.0000 2749.9218 -13495.0788 279.7864 -16245.0006 -13492.4039 270.0389 -72.4929 8.6702 49556.2273 0.6183 0.3039
ENERGY: 325000 3.4063 4.7774 2.9716 0.0000 -18944.6259 2707.5035 0.0000 0.0000 2664.1906 -13561.7767 271.0638 -16225.9672 -13554.7086 271.7280 208.0343 339.1114 49488.8313 2.7920 2.6047
TCL: Running 1000000 steps at 300 kelvin.
TCL: Setting parameter langevinTemp to 300
TCL: Running for 1000000 steps
ETITLE: TS BOND ANGLE DIHED IMPRP ELECT VDW BOUNDARY MISC KINETIC TOTAL TEMP POTENTIAL TOTAL3 TEMPAVG PRESSURE GPRESSURE VOLUME PRESSAVG GPRESSAVG
ENERGY: 325000 3.4063 4.7774 2.9716 0.0000 -18944.6259 2707.5035 0.0000 0.0000 2662.8657 -13563.1015 270.9290 -16225.9672 -13559.0297 270.9290 255.3172 340.8668 49488.8313 255.3172 340.8668
ENERGY: 525000 2.7424 2.4631 4.5635 0.0000 -17784.3917 2330.1439 0.0000 0.0000 2933.1405 -12511.3383 298.4277 -15444.4788 -12505.4590 300.3805 -260.5437 -226.5913 50921.7524 3.4283 2.8288
ENERGY: 725000 4.2574 5.1501 3.8854 0.0000 -18058.9602 2561.1759 0.0000 0.0000 2948.3722 -12536.1192 299.9774 -15484.4914 -12530.3300 301.7394 440.3322 476.5082 51736.8363 2.8726 2.2755
ENERGY: 925000 1.3407 4.6506 4.0479 0.0000 -17863.6864 2318.3215 0.0000 0.0000 2950.1414 -12585.1843 300.1574 -15535.3257 -12581.0439 297.6522 -286.2827 -234.3657 50471.1128 0.6865 0.3459
ENERGY: 1125000 3.2627 1.9906 4.9803 0.0000 -18012.6046 2473.5729 0.0000 0.0000 2947.2124 -12581.5856 299.8594 -15528.7981 -12577.6471 300.8077 219.1659 283.2868 50942.4054 1.9663 1.6317
ENERGY: 1325000 3.1204 3.8356 6.1390 0.0000 -17863.0212 2383.1234 0.0000 0.0000 2920.3736 -12546.4292 297.1288 -15466.8028 -12539.2844 298.8302 -122.2645 -15.4927 50707.4976 1.1509 1.1171
TCL: Exiting due to exit command.
