Info: SIMULATION PARAMETERS:
Info: TIMESTEP               2
Info: NUMBER OF STEPS        0
Info: STEPS PER CYCLE        10
Info: PERIODIC CELL BASIS 1  41.545 0 0
Info: PERIODIC CELL BASIS 2  0 39.303 0
Info: PERIODIC CELL BASIS 3  0 0 40.136
Info: PERIODIC CELL CENTER   0 0 0
Info: WRAPPING WATERS AROUND PERIODIC BOUNDARIES ON OUTPUT.
Info: WRAPPING ALL CLUSTERS AROUND PERIODIC BOUNDARIES ON OUTPUT.
Info: FIRST LDB TIMESTEP     50
Info: LAST LDB TIMESTEP     -1
Info: HOM BACKGROUND SCALING 1
Info: PME BACKGROUND SCALING 1
Info: MIN ATOMS PER PATCH    40
Info: EMPTY PATCH LOAD       40 ATOMS
Info: INITIAL TEMPERATURE    300
Info: CENTER OF MASS MOVING INITIALLY? NO
Info: DIELECTRIC             1
Info: EXCLUDE                SCALED ONE-FOUR
Info: 1-4 ELECTROSTATICS SCALED BY 0.833333
Info: MODIFIED 1-4 VDW PARAMETERS WILL BE USED
Info: DCD FILENAME           mobley_2929847_min.dcd
Info: DCD FREQUENCY          5000
Info: DCD FIRST STEP         5000
Info: DCD FILE WILL CONTAIN UNIT CELL DATA
Info: XST FILENAME           mobley_2929847_min.xst
Info: XST FREQUENCY          5000
Info: NO VELOCITY DCD OUTPUT
Info: NO FORCE DCD OUTPUT
Info: OUTPUT FILENAME        mobley_2929847_min
Info: BINARY OUTPUT FILES WILL BE USED
Info: RESTART FILENAME       mobley_2929847_min.restart
Info: RESTART FREQUENCY      5000
Info: BINARY RESTART FILES WILL BE USED
Info: CUTOFF                 9
Info: PAIRLIST DISTANCE      11
Info: PAIRLIST SHRINK RATE   0.01
Info: PAIRLIST GROW RATE     0.01
Info: PAIRLIST TRIGGER       0.3
Info: PAIRLISTS PER CYCLE    2
Info: PAIRLISTS ENABLED
Info: MARGIN                 8
Info: HYDROGEN GROUP CUTOFF  2.5
Info: PATCH DIMENSION        21.5
Info: ENERGY OUTPUT STEPS    5000
Info: ENERGY EVALUATION STEPS    5000
Info: OUTPUT ENERGY PRECISION 4
Info: CROSSTERM ENERGY INCLUDED IN DIHEDRAL
Info: TIMING OUTPUT STEPS    50000
Info: PRESSURE OUTPUT STEPS  5000
Info: LANGEVIN DYNAMICS ACTIVE
Info: LANGEVIN TEMPERATURE   300
Info: LANGEVIN USING BBK INTEGRATOR
Info: LANGEVIN DAMPING COEFFICIENT IS 1 INVERSE PS
Info: LANGEVIN DYNAMICS APPLIED TO HYDROGENS
Info: LANGEVIN PISTON PRESSURE CONTROL ACTIVE
Info:        TARGET PRESSURE IS 1.01325 BAR
Info:     OSCILLATION PERIOD IS 50 FS
Info:             DECAY TIME IS 25 FS
Info:     PISTON TEMPERATURE IS 300 K
Info:       PRESSURE CONTROL IS GROUP-BASED
Info:    INITIAL STRAIN RATE IS 0 0 0
Info:       CELL FLUCTUATION IS ISOTROPIC
Info: PARTICLE MESH EWALD (PME) ACTIVE
Info: PME TOLERANCE               1e-06
Info: PME EWALD COEFFICIENT       0.348832
Info: PME INTERPOLATION ORDER     4
Info: PME GRID DIMENSIONS         44 40 44
Info: PME MAXIMUM GRID SPACING    1
Info: FULL ELECTROSTATIC EVALUATION FREQUENCY      2
Info: USING VERLET I (r-RESPA) MTS SCHEME.
Info: C1 SPLITTING OF LONG RANGE ELECTROSTATICS
Info: PLACING ATOMS IN PATCHES BY HYDROGEN GROUPS
Info: RIGID BONDS TO HYDROGEN : ALL
Info:         ERROR TOLERANCE : 1e-08
Info:          MAX ITERATIONS : 100
Info: RIGID WATER USING SETTLE ALGORITHM
Info: RANDOM NUMBER SEED     1741323872
Info: USE HYDROGEN BONDS?    NO
Info: Using AMBER format force field!
Info: AMBER PARM FILE        mobley_2929847.prmtop
Info: COORDINATE PDB         mobley_2929847.pdb
Info: Exclusions will be read from PARM file!
Info: SCNB (VDW SCALING)     2
Info: USING ARITHMETIC MEAN TO COMBINE L-J SIGMA PARAMETERS
Info: SUMMARY OF PARAMETERS:
Info: 8 BONDS
Info: 9 ANGLES
Info:   9 HARMONIC
Info:   0 COSINE-BASED
Info: 16 DIHEDRAL
Info: 0 IMPROPER
Info: 0 CROSSTERM
Info: 0 VDW
Info: 36 VDW_PAIRS
Info: 0 NBTHOLE_PAIRS
Info: STRUCTURE SUMMARY:
Info: 4736 ATOMS
Info: 4735 BONDS
Info: 28 ANGLES
Info: 45 DIHEDRALS
Info: 0 IMPROPERS
Info: 0 CROSSTERMS
Info: 4798 EXCLUSIONS
Info: 4729 RIGID BONDS
Info: 9479 DEGREES OF FREEDOM
Info: 1580 HYDROGEN GROUPS
Info: 4 ATOMS IN LARGEST HYDROGEN GROUP
Info: 1580 MIGRATION GROUPS
Info: 4 ATOMS IN LARGEST MIGRATION GROUP
Info: TOTAL MASS = 28441.3 amu
Info: TOTAL CHARGE = 0.000100002 e
Info: MASS DENSITY = 0.720659 g/cm^3
Info: ATOM DENSITY = 0.0722659 atoms/A^3
Info: ADDED 0 IMPLICIT EXCLUSIONS
Info: NONBONDED TABLE R-SQUARED SPACING: 0.0625
Info: NONBONDED TABLE SIZE: 705 POINTS
Info: REMOVING COM VELOCITY -0.138398 -0.00801751 -0.0360803
TCL: Minimizing for 2000 steps
ETITLE: TS BOND ANGLE DIHED IMPRP ELECT VDW BOUNDARY MISC KINETIC TOTAL TEMP POTENTIAL TOTAL3 TEMPAVG PRESSURE GPRESSURE VOLUME PRESSAVG GPRESSAVG
ENERGY: 0 0.0819 1.7449 16.4818 0.0000 -14820.4715 1700.1122 0.0000 0.0000 0.0000 -13102.0507 0.0000 -13102.0507 -13102.0507 0.0000 11142.0442 -15844.4329 65535.7921 11142.0442 -15844.4329
ENERGY: 400 32.5018 9.5134 15.2481 0.0000 -19881.9411 2913.0634 0.0000 0.0000 0.0000 -16911.6143 0.0000 -16911.6143 -16911.6143 0.0000 15858.6216 16004.6027 65535.7921 15858.6216 16004.6027
ENERGY: 800 0.8325 0.8974 14.4398 0.0000 -20992.4589 3430.9916 0.0000 0.0000 0.0000 -17545.2976 0.0000 -17545.2976 -17545.2976 0.0000 18274.5715 18409.8470 65535.7921 18274.5715 18409.8470
ENERGY: 1200 9.0688 4.5376 14.6087 0.0000 -21426.1345 3672.6958 0.0000 0.0000 0.0000 -17725.2236 0.0000 -17725.2236 -17725.2236 0.0000 19404.4880 19509.8741 65535.7921 19404.4880 19509.8741
ENERGY: 1600 0.2298 0.9413 14.5535 0.0000 -21584.9327 3721.9982 0.0000 0.0000 0.0000 -17847.2099 0.0000 -17847.2099 -17847.2099 0.0000 19697.2949 19815.0957 65535.7921 19697.2949 19815.0957
ENERGY: 2000 0.3766 0.8955 14.5314 0.0000 -21705.8916 3773.2371 0.0000 0.0000 0.0000 -17916.8510 0.0000 -17916.8510 -17916.8510 0.0000 19979.8401 20094.7799 65535.7921 19979.8401 20094.7799
TCL: Exiting due to exit command.
Info: NAMD 3.0.1 for Linux-x86_64-multicore
Info: Please visit http://www.ks.uiuc.edu/Research/namd/
Info: for updates, documentation, and support information.
Info: Please cite Phillips et al., J. Chem. Phys. 153:044130 (2020) doi:10.1063/5.0014475
Info: in all publications reporting results obtained with NAMD.
Info: Based on Charm++/Converse 80000 for multicore-linux-x86_64-gcc
Info: Built Mon Oct 14 11:11:06 CDT 2024 by dhardy on athine.ks.uiuc.edu
Info: 1 NAMD  3.0.1  Linux-x86_64-multicore  16    k011  z5358697
Info: Running on 16 processors, 1 nodes, 1 physical nodes.
Info: CPU topology information available.
Info: Charm++/Converse parallel runtime startup completed at 0.00964367 s
Info: 1043.45 MB of memory in use based on /proc/self/stat
Info: Configuration file is mobley_2929847_equil.namd
Info: Working in the current directory /srv/scratch/z5358697/prod_prep_3/2929847
TCL: Running 25000 steps at 30 kelvin.
TCL: Suspending until startup complete.
Info: SIMULATION PARAMETERS:
Info: TIMESTEP               2
Info: NUMBER OF STEPS        0
Info: STEPS PER CYCLE        10
Info: PERIODIC CELL BASIS 1  41.545 0 0
Info: PERIODIC CELL BASIS 2  0 39.303 0
Info: PERIODIC CELL BASIS 3  0 0 40.136
Info: PERIODIC CELL CENTER   0 0 0
Info: WRAPPING WATERS AROUND PERIODIC BOUNDARIES ON OUTPUT.
Info: WRAPPING ALL CLUSTERS AROUND PERIODIC BOUNDARIES ON OUTPUT.
Info: FIRST LDB TIMESTEP     50
Info: LAST LDB TIMESTEP     -1
Info: HOM BACKGROUND SCALING 1
Info: PME BACKGROUND SCALING 1
Info: MIN ATOMS PER PATCH    40
Info: EMPTY PATCH LOAD       40 ATOMS
Info: INITIAL TEMPERATURE    300
Info: CENTER OF MASS MOVING INITIALLY? NO
Info: DIELECTRIC             1
Info: EXCLUDE                SCALED ONE-FOUR
Info: 1-4 ELECTROSTATICS SCALED BY 0.833333
Info: MODIFIED 1-4 VDW PARAMETERS WILL BE USED
Info: DCD FILENAME           mobley_2929847_equil.dcd
Info: DCD FREQUENCY          5000
Info: DCD FIRST STEP         5000
Info: DCD FILE WILL CONTAIN UNIT CELL DATA
Info: XST FILENAME           mobley_2929847_equil.xst
Info: XST FREQUENCY          5000
Info: NO VELOCITY DCD OUTPUT
Info: NO FORCE DCD OUTPUT
Info: OUTPUT FILENAME        mobley_2929847_equil
Info: BINARY OUTPUT FILES WILL BE USED
Info: RESTART FILENAME       mobley_2929847_equil.restart
Info: RESTART FREQUENCY      5000
Info: BINARY RESTART FILES WILL BE USED
Info: CUTOFF                 9
Info: PAIRLIST DISTANCE      11
Info: PAIRLIST SHRINK RATE   0.01
Info: PAIRLIST GROW RATE     0.01
Info: PAIRLIST TRIGGER       0.3
Info: PAIRLISTS PER CYCLE    2
Info: PAIRLISTS ENABLED
Info: MARGIN                 8
Info: HYDROGEN GROUP CUTOFF  2.5
Info: PATCH DIMENSION        21.5
Info: ENERGY OUTPUT STEPS    5000
Info: ENERGY EVALUATION STEPS    5000
Info: OUTPUT ENERGY PRECISION 4
Info: CROSSTERM ENERGY INCLUDED IN DIHEDRAL
Info: TIMING OUTPUT STEPS    50000
Info: PRESSURE OUTPUT STEPS  5000
Info: LANGEVIN DYNAMICS ACTIVE
Info: LANGEVIN TEMPERATURE   30
Info: LANGEVIN USING BBK INTEGRATOR
Info: LANGEVIN DAMPING COEFFICIENT IS 1 INVERSE PS
Info: LANGEVIN DYNAMICS APPLIED TO HYDROGENS
Info: LANGEVIN PISTON PRESSURE CONTROL ACTIVE
Info:        TARGET PRESSURE IS 1.01325 BAR
Info:     OSCILLATION PERIOD IS 50 FS
Info:             DECAY TIME IS 25 FS
Info:     PISTON TEMPERATURE IS 300 K
Info:       PRESSURE CONTROL IS GROUP-BASED
Info:    INITIAL STRAIN RATE IS 0 0 0
Info:       CELL FLUCTUATION IS ISOTROPIC
Info: PARTICLE MESH EWALD (PME) ACTIVE
Info: PME TOLERANCE               1e-06
Info: PME EWALD COEFFICIENT       0.348832
Info: PME INTERPOLATION ORDER     4
Info: PME GRID DIMENSIONS         44 40 44
Info: PME MAXIMUM GRID SPACING    1
Info: FULL ELECTROSTATIC EVALUATION FREQUENCY      2
Info: USING VERLET I (r-RESPA) MTS SCHEME.
Info: C1 SPLITTING OF LONG RANGE ELECTROSTATICS
Info: PLACING ATOMS IN PATCHES BY HYDROGEN GROUPS
Info: RIGID BONDS TO HYDROGEN : ALL
Info:         ERROR TOLERANCE : 1e-08
Info:          MAX ITERATIONS : 100
Info: RIGID WATER USING SETTLE ALGORITHM
Info: RANDOM NUMBER SEED     1741323888
Info: USE HYDROGEN BONDS?    NO
Info: Using AMBER format force field!
Info: AMBER PARM FILE        mobley_2929847.prmtop
Info: COORDINATE PDB         mobley_2929847.pdb
Info: Exclusions will be read from PARM file!
Info: SCNB (VDW SCALING)     2
Info: USING ARITHMETIC MEAN TO COMBINE L-J SIGMA PARAMETERS
Info: BINARY COORDINATES     mobley_2929847_min.coor
Info: SUMMARY OF PARAMETERS:
Info: 8 BONDS
Info: 9 ANGLES
Info:   9 HARMONIC
Info:   0 COSINE-BASED
Info: 16 DIHEDRAL
Info: 0 IMPROPER
Info: 0 CROSSTERM
Info: 0 VDW
Info: 36 VDW_PAIRS
Info: 0 NBTHOLE_PAIRS
Info: STRUCTURE SUMMARY:
Info: 4736 ATOMS
Info: 4735 BONDS
Info: 28 ANGLES
Info: 45 DIHEDRALS
Info: 0 IMPROPERS
Info: 0 CROSSTERMS
Info: 4798 EXCLUSIONS
Info: 4729 RIGID BONDS
Info: 9479 DEGREES OF FREEDOM
Info: 1580 HYDROGEN GROUPS
Info: 4 ATOMS IN LARGEST HYDROGEN GROUP
Info: 1580 MIGRATION GROUPS
Info: 4 ATOMS IN LARGEST MIGRATION GROUP
Info: TOTAL MASS = 28441.3 amu
Info: TOTAL CHARGE = 0.000100002 e
Info: MASS DENSITY = 0.720659 g/cm^3
Info: ATOM DENSITY = 0.0722659 atoms/A^3
Info: ADDED 0 IMPLICIT EXCLUSIONS
Info: NONBONDED TABLE R-SQUARED SPACING: 0.0625
Info: NONBONDED TABLE SIZE: 705 POINTS
Info: REMOVING COM VELOCITY 0.0449846 0.0402912 -0.0938875
TCL: Running for 25000 steps
ETITLE: TS BOND ANGLE DIHED IMPRP ELECT VDW BOUNDARY MISC KINETIC TOTAL TEMP POTENTIAL TOTAL3 TEMPAVG PRESSURE GPRESSURE VOLUME PRESSAVG GPRESSAVG
ENERGY: 0 0.3766 0.8955 14.5314 0.0000 -21705.8916 3773.2371 0.0000 0.0000 2823.2048 -15093.6462 299.7576 -17916.8509 -15093.0667 299.7576 219.5897 256.9728 65535.7921 219.5897 256.9728
ENERGY: 5000 0.2347 1.2560 14.6310 0.0000 -22883.9340 4030.9170 0.0000 0.0000 285.3540 -18551.5413 30.2978 -18836.8953 -18550.6671 48.0370 433.2789 473.6932 45653.8532 4.7988 4.5838
ENERGY: 10000 0.8040 1.5428 14.3992 0.0000 -22703.2609 3827.2835 0.0000 0.0000 281.6723 -18577.5592 29.9069 -18859.2315 -18577.0790 30.1311 -778.2167 -724.5037 45944.0738 1.4379 1.4678
ENERGY: 15000 0.4333 1.9750 14.6152 0.0000 -22899.9434 4004.9079 0.0000 0.0000 284.4502 -18593.5619 30.2019 -18878.0120 -18592.8276 29.8252 176.7244 219.0332 45727.7404 1.4931 1.5718
ENERGY: 20000 0.1523 1.6490 14.6687 0.0000 -22909.1318 4000.2931 0.0000 0.0000 280.5536 -18611.8151 29.7882 -18892.3687 -18611.2120 30.0551 126.6149 199.3351 45625.8711 5.3015 5.2597
ENERGY: 25000 0.1396 1.8079 14.8712 0.0000 -22735.3950 3831.7959 0.0000 0.0000 284.7609 -18602.0195 30.2349 -18886.7804 -18600.7669 30.2287 -742.6040 -702.7764 46002.2725 3.5880 3.5340
TCL: Running 25000 steps at 60 kelvin.
TCL: Setting parameter langevinTemp to 60
TCL: Running for 25000 steps
ETITLE: TS BOND ANGLE DIHED IMPRP ELECT VDW BOUNDARY MISC KINETIC TOTAL TEMP POTENTIAL TOTAL3 TEMPAVG PRESSURE GPRESSURE VOLUME PRESSAVG GPRESSAVG
ENERGY: 25000 0.1396 1.8079 14.8712 0.0000 -22735.3950 3831.7959 0.0000 0.0000 284.6182 -18602.1623 30.2197 -18886.7804 -18601.5098 30.2197 -747.0596 -702.5212 46002.2725 -747.0596 -702.5212
ENERGY: 30000 0.5290 1.9191 14.6191 0.0000 -22497.1659 3844.8843 0.0000 0.0000 583.9311 -18051.2834 61.9997 -18635.2145 -18049.6826 56.9559 -169.0231 -125.0284 46331.0459 2.8081 3.0338
ENERGY: 35000 0.6818 2.1868 15.2212 0.0000 -22476.3255 3788.6780 0.0000 0.0000 564.9596 -18104.5981 59.9854 -18669.5577 -18102.7149 60.4279 -615.5498 -568.4031 46498.9687 0.9195 1.2899
ENERGY: 40000 1.0794 2.0436 14.8472 0.0000 -22446.3478 3745.7883 0.0000 0.0000 565.4435 -18117.1458 60.0367 -18682.5893 -18115.8076 60.1340 -874.5908 -821.7705 46524.3496 3.6741 3.7669
ENERGY: 45000 1.2539 2.0013 14.9120 0.0000 -22765.0446 4031.4917 0.0000 0.0000 563.8366 -18151.5491 59.8661 -18715.3857 -18150.9243 59.8021 561.6713 629.6770 46116.3926 3.4058 3.0888
ENERGY: 50000 0.9693 3.3753 15.0592 0.0000 -22710.6229 3974.3418 0.0000 0.0000 547.5118 -18169.3656 58.1328 -18716.8773 -18168.4642 59.5148 248.1648 268.4284 46325.7452 5.3054 4.8322
TCL: Running 25000 steps at 90 kelvin.
TCL: Setting parameter langevinTemp to 90
TCL: Running for 25000 steps
ETITLE: TS BOND ANGLE DIHED IMPRP ELECT VDW BOUNDARY MISC KINETIC TOTAL TEMP POTENTIAL TOTAL3 TEMPAVG PRESSURE GPRESSURE VOLUME PRESSAVG GPRESSAVG
ENERGY: 50000 0.9693 3.3753 15.0592 0.0000 -22710.6229 3974.3418 0.0000 0.0000 547.2281 -18169.6492 58.1027 -18716.8773 -18168.4508 58.1027 223.2974 267.8926 46325.7452 223.2974 267.8926
ENERGY: 55000 0.1970 3.8430 15.1886 0.0000 -22369.0956 3916.0542 0.0000 0.0000 863.9246 -17569.8882 91.7284 -18433.8128 -17568.1057 86.6646 642.8300 687.1187 46454.1354 1.8314 2.0152
ENERGY: 60000 0.1177 2.5664 14.7219 0.0000 -22151.3949 3673.3741 0.0000 0.0000 848.8391 -17611.7756 90.1267 -18460.6148 -17609.2018 90.3813 -700.9323 -664.0760 46689.6769 4.5652 5.0831
ENERGY: 65000 0.9245 2.2533 14.8883 0.0000 -22263.9552 3761.3333 0.0000 0.0000 828.3515 -17656.2042 87.9514 -18484.5558 -17653.7418 90.2707 -288.1885 -229.3626 46453.8739 2.7831 2.9898
ENERGY: 70000 0.3940 2.1638 14.6072 0.0000 -22252.8975 3759.9264 0.0000 0.0000 838.8567 -17636.9494 89.0668 -18475.8061 -17634.7659 90.2541 -332.3365 -281.3455 46604.5833 1.2309 1.0421
ENERGY: 75000 0.2948 2.2401 14.5236 0.0000 -22242.9663 3696.6424 0.0000 0.0000 845.3318 -17683.9336 89.7543 -18529.2654 -17681.9969 89.5578 -617.6057 -565.5489 46350.8946 -1.0146 -0.8666
TCL: Running 25000 steps at 120 kelvin.
TCL: Setting parameter langevinTemp to 120
TCL: Running for 25000 steps
ETITLE: TS BOND ANGLE DIHED IMPRP ELECT VDW BOUNDARY MISC KINETIC TOTAL TEMP POTENTIAL TOTAL3 TEMPAVG PRESSURE GPRESSURE VOLUME PRESSAVG GPRESSAVG
ENERGY: 75000 0.2948 2.2401 14.5236 0.0000 -22242.9663 3696.6424 0.0000 0.0000 844.9175 -17684.3479 89.7103 -18529.2654 -17682.7151 89.7103 -607.9815 -565.6655 46350.8946 -607.9815 -565.6655
ENERGY: 80000 0.6546 4.0432 14.7329 0.0000 -21739.5418 3501.8696 0.0000 0.0000 1106.3510 -17111.8905 117.4683 -18218.2416 -17108.3948 116.8508 -963.4049 -935.2701 46827.6271 6.9527 6.7678
ENERGY: 85000 0.5653 3.8456 14.7181 0.0000 -22024.1197 3778.5837 0.0000 0.0000 1137.9034 -17088.5036 120.8185 -18226.4070 -17086.7285 120.0321 370.1087 454.7756 46419.5633 3.8330 3.2960
ENERGY: 90000 0.9588 5.0080 14.4951 0.0000 -22003.1503 3731.3309 0.0000 0.0000 1156.1994 -17095.1582 122.7610 -18251.3575 -17092.6232 120.5695 130.2268 207.3265 46582.8219 7.4649 7.4011
ENERGY: 95000 2.6793 4.3371 14.8463 0.0000 -21825.9230 3556.1147 0.0000 0.0000 1139.3197 -17108.6260 120.9688 -18247.9457 -17105.9095 119.7312 -897.3169 -842.9576 46852.2619 1.4068 2.1007
ENERGY: 100000 0.2629 4.3991 14.1788 0.0000 -21971.0962 3678.4588 0.0000 0.0000 1115.8972 -17157.8994 118.4819 -18273.7966 -17154.1852 120.3497 -123.6203 -103.6281 46459.6165 5.6440 5.5935
TCL: Running 25000 steps at 150 kelvin.
TCL: Setting parameter langevinTemp to 150
TCL: Running for 25000 steps
ETITLE: TS BOND ANGLE DIHED IMPRP ELECT VDW BOUNDARY MISC KINETIC TOTAL TEMP POTENTIAL TOTAL3 TEMPAVG PRESSURE GPRESSURE VOLUME PRESSAVG GPRESSAVG
ENERGY: 100000 0.2629 4.3991 14.1788 0.0000 -21971.0962 3678.4588 0.0000 0.0000 1115.3138 -17158.4828 118.4200 -18273.7966 -17156.7359 118.4200 -152.5703 -102.5640 46459.6165 -152.5703 -102.5640
ENERGY: 105000 0.3092 4.6640 14.4723 0.0000 -21589.7253 3603.8260 0.0000 0.0000 1421.8296 -16544.6241 150.9647 -17966.4537 -16542.5246 145.9968 115.5850 181.9838 46762.4593 0.8150 0.5030
ENERGY: 110000 0.6232 4.4053 14.4086 0.0000 -21621.3405 3613.1053 0.0000 0.0000 1407.0768 -16581.7213 149.3983 -17988.7981 -16577.6393 147.9561 155.9417 206.9725 46645.0594 9.1612 8.6299
ENERGY: 115000 0.5117 4.3030 15.0934 0.0000 -21548.8018 3547.8134 0.0000 0.0000 1415.3692 -16565.7110 150.2788 -17981.0802 -16562.4095 150.5460 -189.2163 -144.0154 46683.6771 -0.3984 -0.4162
ENERGY: 120000 0.3281 3.3164 15.4671 0.0000 -21720.6867 3714.2067 0.0000 0.0000 1432.2359 -16555.1325 152.0696 -17987.3684 -16552.2000 150.2569 755.9443 788.8144 46264.2176 7.0586 6.9231
ENERGY: 125000 0.8824 7.4222 15.4042 0.0000 -21485.2443 3475.4361 0.0000 0.0000 1431.2520 -16554.8474 151.9651 -17986.0994 -16549.6445 150.5614 -412.5177 -369.3210 46257.1536 2.8147 2.9321
TCL: Running 50000 steps at 180 kelvin.
TCL: Setting parameter langevinTemp to 180
TCL: Running for 50000 steps
ETITLE: TS BOND ANGLE DIHED IMPRP ELECT VDW BOUNDARY MISC KINETIC TOTAL TEMP POTENTIAL TOTAL3 TEMPAVG PRESSURE GPRESSURE VOLUME PRESSAVG GPRESSAVG
ENERGY: 125000 0.8824 7.4222 15.4042 0.0000 -21485.2443 3475.4361 0.0000 0.0000 1430.5355 -16555.5639 151.8891 -17986.0994 -16552.5317 151.8891 -433.0613 -368.5517 46257.1536 -433.0613 -368.5517
ENERGY: 135000 1.6197 4.2991 15.5419 0.0000 -20952.4595 3357.4442 0.0000 0.0000 1707.3743 -15866.1803 181.2828 -17573.5546 -15860.5433 181.1148 -231.3977 -175.7626 46487.8143 4.9500 4.6676
ENERGY: 145000 1.1837 3.0151 15.4540 0.0000 -20928.0146 3320.5638 0.0000 0.0000 1698.0511 -15889.7469 180.2929 -17587.7980 -15884.8031 180.3506 -280.2962 -221.5186 46401.5967 8.5450 8.7230
ENERGY: 155000 2.3812 5.4815 14.6955 0.0000 -20909.5480 3336.0591 0.0000 0.0000 1715.7659 -15835.1650 182.1738 -17550.9308 -15831.2970 179.7812 -58.1926 11.6572 46030.4452 -3.2251 -3.0245
ENERGY: 165000 0.7937 6.9403 15.4555 0.0000 -20965.8185 3359.1203 0.0000 0.0000 1693.7292 -15889.7794 179.8340 -17583.5086 -15884.3319 179.2278 -167.7486 -84.1705 46295.8666 4.5525 4.5538
ENERGY: 175000 0.7203 3.0996 15.1497 0.0000 -21050.9374 3397.9260 0.0000 0.0000 1663.4507 -15970.5911 176.6192 -17634.0418 -15967.6193 180.1904 -72.6475 3.0138 46344.3849 0.4227 1.0796
TCL: Running 50000 steps at 210 kelvin.
TCL: Setting parameter langevinTemp to 210
TCL: Running for 50000 steps
ETITLE: TS BOND ANGLE DIHED IMPRP ELECT VDW BOUNDARY MISC KINETIC TOTAL TEMP POTENTIAL TOTAL3 TEMPAVG PRESSURE GPRESSURE VOLUME PRESSAVG GPRESSAVG
ENERGY: 175000 0.7203 3.0996 15.1497 0.0000 -21050.9374 3397.9260 0.0000 0.0000 1662.6238 -15971.4180 176.5314 -17634.0418 -15968.2057 176.5314 -51.1538 2.7424 46344.3849 -51.1538 2.7424
ENERGY: 185000 4.1678 3.2087 15.0041 0.0000 -20210.7692 3157.2032 0.0000 0.0000 2012.6835 -15018.5019 213.6994 -17031.1854 -15014.4697 207.4921 62.8163 191.1310 46277.3279 6.4869 6.1678
ENERGY: 195000 0.4854 3.4217 14.4352 0.0000 -19965.5592 3050.7137 0.0000 0.0000 1948.0301 -14948.4731 206.8348 -16896.5032 -14942.9735 210.6839 -154.3205 -94.3840 46615.1709 0.0858 -0.6720
ENERGY: 205000 1.4567 6.6466 16.6275 0.0000 -19993.6611 3053.7514 0.0000 0.0000 1979.7058 -14935.4730 210.1980 -16915.1789 -14930.7009 211.1153 -113.8678 -28.4031 46575.9896 1.4047 1.4034
ENERGY: 215000 2.8124 6.9748 14.5769 0.0000 -20048.8850 3123.6084 0.0000 0.0000 1945.1050 -14955.8074 206.5242 -16900.9124 -14948.1792 210.1020 240.6362 291.6483 46304.2896 -1.8882 -1.4886
ENERGY: 225000 1.2808 6.6699 15.9504 0.0000 -19936.6916 3021.3242 0.0000 0.0000 1954.7999 -14936.6664 207.5536 -16891.4663 -14931.5963 209.8095 -280.2796 -165.6613 46351.5292 -2.2841 -2.0004
TCL: Running 50000 steps at 240 kelvin.
TCL: Setting parameter langevinTemp to 240
TCL: Running for 50000 steps
ETITLE: TS BOND ANGLE DIHED IMPRP ELECT VDW BOUNDARY MISC KINETIC TOTAL TEMP POTENTIAL TOTAL3 TEMPAVG PRESSURE GPRESSURE VOLUME PRESSAVG GPRESSAVG
ENERGY: 225000 1.2808 6.6699 15.9504 0.0000 -19936.6916 3021.3242 0.0000 0.0000 1953.8125 -14937.6538 207.4487 -16891.4663 -14934.4505 207.4487 -246.9291 -165.4211 46351.5292 -246.9291 -165.4211
ENERGY: 235000 1.0353 6.8965 15.9410 0.0000 -18858.2320 2714.6564 0.0000 0.0000 2260.8318 -13858.8710 240.0469 -16119.7028 -13852.3087 241.0777 1.6300 88.7246 46431.9417 1.8772 2.0675
ENERGY: 245000 0.7256 4.3362 16.1666 0.0000 -18966.7249 2723.9503 0.0000 0.0000 2274.8803 -13946.6659 241.5385 -16221.5462 -13939.4103 239.8130 -327.0484 -217.0890 46953.9371 -2.8249 -3.0375
ENERGY: 255000 2.9944 4.8968 15.2694 0.0000 -18893.7132 2705.3829 0.0000 0.0000 2277.1716 -13887.9982 241.7818 -16165.1698 -13883.3947 240.9440 -379.3543 -304.8890 47301.4575 1.5980 1.3712
ENERGY: 265000 1.2906 8.2758 16.8546 0.0000 -18994.4055 2708.0561 0.0000 0.0000 2217.4604 -14042.4679 235.4419 -16259.9283 -14037.6550 239.2882 -537.3968 -452.2477 46662.2565 3.6909 3.8768
ENERGY: 275000 1.6317 8.5133 15.0094 0.0000 -18978.2457 2789.1041 0.0000 0.0000 2241.9865 -13922.0006 238.0460 -16163.9871 -13916.4513 239.3324 0.1799 153.3110 46960.4698 -2.1388 -1.4394
TCL: Running 50000 steps at 270 kelvin.
TCL: Setting parameter langevinTemp to 270
TCL: Running for 50000 steps
ETITLE: TS BOND ANGLE DIHED IMPRP ELECT VDW BOUNDARY MISC KINETIC TOTAL TEMP POTENTIAL TOTAL3 TEMPAVG PRESSURE GPRESSURE VOLUME PRESSAVG GPRESSAVG
ENERGY: 275000 1.6317 8.5133 15.0094 0.0000 -18978.2457 2789.1041 0.0000 0.0000 2240.8202 -13923.1669 237.9221 -16163.9871 -13919.5568 237.9221 72.2097 153.1443 46960.4698 72.2097 153.1443
ENERGY: 285000 1.9917 7.4254 15.5030 0.0000 -18250.6157 2607.0399 0.0000 0.0000 2542.0047 -13076.6510 269.9008 -15618.6557 -13071.5327 269.7027 466.4858 528.2252 46856.5579 0.0587 0.5597
ENERGY: 295000 1.9609 6.1214 14.1148 0.0000 -18078.2683 2579.1023 0.0000 0.0000 2609.6614 -12867.3076 277.0844 -15476.9690 -12861.7670 270.0029 361.5538 459.5720 47379.9941 6.3687 6.3385
ENERGY: 305000 0.8586 6.0890 16.5261 0.0000 -18031.7625 2488.2448 0.0000 0.0000 2602.0866 -12917.9574 276.2801 -15520.0440 -12914.3948 269.3198 -71.5152 36.0840 47379.5029 4.0943 4.3846
ENERGY: 315000 3.1270 9.0802 16.2941 0.0000 -18063.8356 2534.9641 0.0000 0.0000 2544.6759 -12955.6943 270.1844 -15500.3702 -12949.6801 271.7047 -2.7205 61.2103 47577.9527 2.3988 2.1173
ENERGY: 325000 4.6172 5.4544 15.8391 0.0000 -18101.4134 2555.2872 0.0000 0.0000 2566.8153 -12953.4002 272.5351 -15520.2156 -12948.3409 270.5729 236.3558 284.2542 47256.7431 2.5154 2.2421
TCL: Running 1000000 steps at 300 kelvin.
TCL: Setting parameter langevinTemp to 300
TCL: Running for 1000000 steps
ETITLE: TS BOND ANGLE DIHED IMPRP ELECT VDW BOUNDARY MISC KINETIC TOTAL TEMP POTENTIAL TOTAL3 TEMPAVG PRESSURE GPRESSURE VOLUME PRESSAVG GPRESSAVG
ENERGY: 325000 4.6172 5.4544 15.8391 0.0000 -18101.4134 2555.2872 0.0000 0.0000 2565.5836 -12954.6320 272.4043 -15520.2156 -12951.6416 272.4043 198.0231 285.3521 47256.7431 198.0231 285.3521
ENERGY: 525000 2.6635 8.8460 16.0129 0.0000 -17239.3800 2329.5723 0.0000 0.0000 2771.9197 -12110.3656 294.3124 -14882.2853 -12102.1837 299.6654 -13.0856 97.0820 48759.3652 0.6115 0.9822
ENERGY: 725000 1.7756 7.3598 14.1394 0.0000 -17301.5755 2332.5488 0.0000 0.0000 2828.0371 -12117.7147 300.2707 -14945.7518 -12110.8825 300.5348 -180.3657 -52.5907 48863.6501 0.5406 0.6952
ENERGY: 925000 1.3313 5.9844 18.0646 0.0000 -17292.2409 2376.6562 0.0000 0.0000 2817.4752 -12072.7291 299.1493 -14890.2043 -12069.4118 300.8048 327.8472 402.2373 48451.0784 0.2577 0.9640
ENERGY: 1125000 0.8743 9.8779 13.5419 0.0000 -17045.5980 2152.1852 0.0000 0.0000 2802.0528 -12067.0658 297.5118 -14869.1186 -12057.7970 299.1249 -723.8630 -611.7097 48713.2348 2.2891 2.2051
ENERGY: 1325000 1.2308 5.7036 15.5914 0.0000 -16978.6295 2149.5042 0.0000 0.0000 2759.3979 -12047.2016 292.9828 -14806.5995 -12041.8459 300.4607 -608.4077 -553.3346 48661.5717 0.8036 1.0830
TCL: Exiting due to exit command.
