Info: SIMULATION PARAMETERS:
Info: TIMESTEP               2
Info: NUMBER OF STEPS        0
Info: STEPS PER CYCLE        10
Info: PERIODIC CELL BASIS 1  41.545 0 0
Info: PERIODIC CELL BASIS 2  0 41.628 0
Info: PERIODIC CELL BASIS 3  0 0 39.561
Info: PERIODIC CELL CENTER   0 0 0
Info: WRAPPING WATERS AROUND PERIODIC BOUNDARIES ON OUTPUT.
Info: WRAPPING ALL CLUSTERS AROUND PERIODIC BOUNDARIES ON OUTPUT.
Info: FIRST LDB TIMESTEP     50
Info: LAST LDB TIMESTEP     -1
Info: HOM BACKGROUND SCALING 1
Info: PME BACKGROUND SCALING 1
Info: MIN ATOMS PER PATCH    40
Info: EMPTY PATCH LOAD       40 ATOMS
Info: INITIAL TEMPERATURE    300
Info: CENTER OF MASS MOVING INITIALLY? NO
Info: DIELECTRIC             1
Info: EXCLUDE                SCALED ONE-FOUR
Info: 1-4 ELECTROSTATICS SCALED BY 0.833333
Info: MODIFIED 1-4 VDW PARAMETERS WILL BE USED
Info: DCD FILENAME           mobley_8449031_min.dcd
Info: DCD FREQUENCY          5000
Info: DCD FIRST STEP         5000
Info: DCD FILE WILL CONTAIN UNIT CELL DATA
Info: XST FILENAME           mobley_8449031_min.xst
Info: XST FREQUENCY          5000
Info: NO VELOCITY DCD OUTPUT
Info: NO FORCE DCD OUTPUT
Info: OUTPUT FILENAME        mobley_8449031_min
Info: BINARY OUTPUT FILES WILL BE USED
Info: RESTART FILENAME       mobley_8449031_min.restart
Info: RESTART FREQUENCY      5000
Info: BINARY RESTART FILES WILL BE USED
Info: CUTOFF                 9
Info: PAIRLIST DISTANCE      11
Info: PAIRLIST SHRINK RATE   0.01
Info: PAIRLIST GROW RATE     0.01
Info: PAIRLIST TRIGGER       0.3
Info: PAIRLISTS PER CYCLE    2
Info: PAIRLISTS ENABLED
Info: MARGIN                 8
Info: HYDROGEN GROUP CUTOFF  2.5
Info: PATCH DIMENSION        21.5
Info: ENERGY OUTPUT STEPS    5000
Info: ENERGY EVALUATION STEPS    5000
Info: OUTPUT ENERGY PRECISION 4
Info: CROSSTERM ENERGY INCLUDED IN DIHEDRAL
Info: TIMING OUTPUT STEPS    50000
Info: PRESSURE OUTPUT STEPS  5000
Info: LANGEVIN DYNAMICS ACTIVE
Info: LANGEVIN TEMPERATURE   300
Info: LANGEVIN USING BBK INTEGRATOR
Info: LANGEVIN DAMPING COEFFICIENT IS 1 INVERSE PS
Info: LANGEVIN DYNAMICS APPLIED TO HYDROGENS
Info: LANGEVIN PISTON PRESSURE CONTROL ACTIVE
Info:        TARGET PRESSURE IS 1.01325 BAR
Info:     OSCILLATION PERIOD IS 50 FS
Info:             DECAY TIME IS 25 FS
Info:     PISTON TEMPERATURE IS 300 K
Info:       PRESSURE CONTROL IS GROUP-BASED
Info:    INITIAL STRAIN RATE IS 0 0 0
Info:       CELL FLUCTUATION IS ISOTROPIC
Info: PARTICLE MESH EWALD (PME) ACTIVE
Info: PME TOLERANCE               1e-06
Info: PME EWALD COEFFICIENT       0.348832
Info: PME INTERPOLATION ORDER     4
Info: PME GRID DIMENSIONS         44 44 40
Info: PME MAXIMUM GRID SPACING    1
Info: FULL ELECTROSTATIC EVALUATION FREQUENCY      2
Info: USING VERLET I (r-RESPA) MTS SCHEME.
Info: C1 SPLITTING OF LONG RANGE ELECTROSTATICS
Info: PLACING ATOMS IN PATCHES BY HYDROGEN GROUPS
Info: RIGID BONDS TO HYDROGEN : ALL
Info:         ERROR TOLERANCE : 1e-08
Info:          MAX ITERATIONS : 100
Info: RIGID WATER USING SETTLE ALGORITHM
Info: RANDOM NUMBER SEED     1741407706
Info: USE HYDROGEN BONDS?    NO
Info: Using AMBER format force field!
Info: AMBER PARM FILE        mobley_8449031.prmtop
Info: COORDINATE PDB         mobley_8449031.pdb
Info: Exclusions will be read from PARM file!
Info: SCNB (VDW SCALING)     2
Info: USING ARITHMETIC MEAN TO COMBINE L-J SIGMA PARAMETERS
Info: SUMMARY OF PARAMETERS:
Info: 6 BONDS
Info: 7 ANGLES
Info:   7 HARMONIC
Info:   0 COSINE-BASED
Info: 4 DIHEDRAL
Info: 0 IMPROPER
Info: 0 CROSSTERM
Info: 0 VDW
Info: 21 VDW_PAIRS
Info: 0 NBTHOLE_PAIRS
Info: STRUCTURE SUMMARY:
Info: 4924 ATOMS
Info: 4923 BONDS
Info: 39 ANGLES
Info: 45 DIHEDRALS
Info: 0 IMPROPERS
Info: 0 CROSSTERMS
Info: 5007 EXCLUSIONS
Info: 4917 RIGID BONDS
Info: 9855 DEGREES OF FREEDOM
Info: 1641 HYDROGEN GROUPS
Info: 4 ATOMS IN LARGEST HYDROGEN GROUP
Info: 1641 MIGRATION GROUPS
Info: 4 ATOMS IN LARGEST MIGRATION GROUP
Info: TOTAL MASS = 29539.3 amu
Info: TOTAL CHARGE = -0.000100035 e
Info: MASS DENSITY = 0.716949 g/cm^3
Info: ATOM DENSITY = 0.0719692 atoms/A^3
Info: ADDED 0 IMPLICIT EXCLUSIONS
Info: NONBONDED TABLE R-SQUARED SPACING: 0.0625
Info: NONBONDED TABLE SIZE: 705 POINTS
Info: REMOVING COM VELOCITY 0.0180637 -0.149807 0.134211
TCL: Minimizing for 2000 steps
ETITLE: TS BOND ANGLE DIHED IMPRP ELECT VDW BOUNDARY MISC KINETIC TOTAL TEMP POTENTIAL TOTAL3 TEMPAVG PRESSURE GPRESSURE VOLUME PRESSAVG GPRESSAVG
ENERGY: 0 1.7929 2.1695 0.0553 0.0000 -15197.2604 1711.3402 0.0000 0.0000 0.0000 -13481.9024 0.0000 -13481.9024 -13481.9024 0.0000 10959.6457 -15516.5723 68418.1883 10959.6457 -15516.5723
ENERGY: 400 41.8694 21.3759 1.6432 0.0000 -20421.6452 2866.0943 0.0000 0.0000 0.0000 -17490.6624 0.0000 -17490.6624 -17490.6624 0.0000 15090.8124 15179.1934 68418.1883 15090.8124 15179.1934
ENERGY: 800 0.8133 2.1129 1.0216 0.0000 -21727.7113 3507.3223 0.0000 0.0000 0.0000 -18216.4412 0.0000 -18216.4412 -18216.4412 0.0000 17999.1327 18122.0944 68418.1883 17999.1327 18122.0944
ENERGY: 1200 0.6141 1.4730 0.9526 0.0000 -22135.5847 3678.3896 0.0000 0.0000 0.0000 -18454.1554 0.0000 -18454.1554 -18454.1554 0.0000 18807.7351 18910.1676 68418.1883 18807.7351 18910.1676
ENERGY: 1600 0.7214 1.0926 1.6485 0.0000 -22462.0653 3856.0385 0.0000 0.0000 0.0000 -18602.5642 0.0000 -18602.5642 -18602.5642 0.0000 19643.5941 19744.0209 68418.1883 19643.5941 19744.0209
ENERGY: 2000 0.4819 1.4296 1.0976 0.0000 -22575.9062 3892.3703 0.0000 0.0000 0.0000 -18680.5268 0.0000 -18680.5268 -18680.5268 0.0000 19782.9025 19878.6135 68418.1883 19782.9025 19878.6135
TCL: Exiting due to exit command.
Info: NAMD 3.0.1 for Linux-x86_64-multicore
Info: Please visit http://www.ks.uiuc.edu/Research/namd/
Info: for updates, documentation, and support information.
Info: Please cite Phillips et al., J. Chem. Phys. 153:044130 (2020) doi:10.1063/5.0014475
Info: in all publications reporting results obtained with NAMD.
Info: Based on Charm++/Converse 80000 for multicore-linux-x86_64-gcc
Info: Built Mon Oct 14 11:11:06 CDT 2024 by dhardy on athine.ks.uiuc.edu
Info: 1 NAMD  3.0.1  Linux-x86_64-multicore  16    k027  z5358697
Info: Running on 16 processors, 1 nodes, 1 physical nodes.
Info: CPU topology information available.
Info: Charm++/Converse parallel runtime startup completed at 0.0238987 s
Info: 1043.46 MB of memory in use based on /proc/self/stat
Info: Configuration file is mobley_8449031_equil.namd
Info: Working in the current directory /srv/scratch/z5358697/prod_prep_10/8449031
TCL: Running 25000 steps at 30 kelvin.
TCL: Suspending until startup complete.
Info: SIMULATION PARAMETERS:
Info: TIMESTEP               2
Info: NUMBER OF STEPS        0
Info: STEPS PER CYCLE        10
Info: PERIODIC CELL BASIS 1  41.545 0 0
Info: PERIODIC CELL BASIS 2  0 41.628 0
Info: PERIODIC CELL BASIS 3  0 0 39.561
Info: PERIODIC CELL CENTER   0 0 0
Info: WRAPPING WATERS AROUND PERIODIC BOUNDARIES ON OUTPUT.
Info: WRAPPING ALL CLUSTERS AROUND PERIODIC BOUNDARIES ON OUTPUT.
Info: FIRST LDB TIMESTEP     50
Info: LAST LDB TIMESTEP     -1
Info: HOM BACKGROUND SCALING 1
Info: PME BACKGROUND SCALING 1
Info: MIN ATOMS PER PATCH    40
Info: EMPTY PATCH LOAD       40 ATOMS
Info: INITIAL TEMPERATURE    300
Info: CENTER OF MASS MOVING INITIALLY? NO
Info: DIELECTRIC             1
Info: EXCLUDE                SCALED ONE-FOUR
Info: 1-4 ELECTROSTATICS SCALED BY 0.833333
Info: MODIFIED 1-4 VDW PARAMETERS WILL BE USED
Info: DCD FILENAME           mobley_8449031_equil.dcd
Info: DCD FREQUENCY          5000
Info: DCD FIRST STEP         5000
Info: DCD FILE WILL CONTAIN UNIT CELL DATA
Info: XST FILENAME           mobley_8449031_equil.xst
Info: XST FREQUENCY          5000
Info: NO VELOCITY DCD OUTPUT
Info: NO FORCE DCD OUTPUT
Info: OUTPUT FILENAME        mobley_8449031_equil
Info: BINARY OUTPUT FILES WILL BE USED
Info: RESTART FILENAME       mobley_8449031_equil.restart
Info: RESTART FREQUENCY      5000
Info: BINARY RESTART FILES WILL BE USED
Info: CUTOFF                 9
Info: PAIRLIST DISTANCE      11
Info: PAIRLIST SHRINK RATE   0.01
Info: PAIRLIST GROW RATE     0.01
Info: PAIRLIST TRIGGER       0.3
Info: PAIRLISTS PER CYCLE    2
Info: PAIRLISTS ENABLED
Info: MARGIN                 8
Info: HYDROGEN GROUP CUTOFF  2.5
Info: PATCH DIMENSION        21.5
Info: ENERGY OUTPUT STEPS    5000
Info: ENERGY EVALUATION STEPS    5000
Info: OUTPUT ENERGY PRECISION 4
Info: CROSSTERM ENERGY INCLUDED IN DIHEDRAL
Info: TIMING OUTPUT STEPS    50000
Info: PRESSURE OUTPUT STEPS  5000
Info: LANGEVIN DYNAMICS ACTIVE
Info: LANGEVIN TEMPERATURE   30
Info: LANGEVIN USING BBK INTEGRATOR
Info: LANGEVIN DAMPING COEFFICIENT IS 1 INVERSE PS
Info: LANGEVIN DYNAMICS APPLIED TO HYDROGENS
Info: LANGEVIN PISTON PRESSURE CONTROL ACTIVE
Info:        TARGET PRESSURE IS 1.01325 BAR
Info:     OSCILLATION PERIOD IS 50 FS
Info:             DECAY TIME IS 25 FS
Info:     PISTON TEMPERATURE IS 300 K
Info:       PRESSURE CONTROL IS GROUP-BASED
Info:    INITIAL STRAIN RATE IS 0 0 0
Info:       CELL FLUCTUATION IS ISOTROPIC
Info: PARTICLE MESH EWALD (PME) ACTIVE
Info: PME TOLERANCE               1e-06
Info: PME EWALD COEFFICIENT       0.348832
Info: PME INTERPOLATION ORDER     4
Info: PME GRID DIMENSIONS         44 44 40
Info: PME MAXIMUM GRID SPACING    1
Info: FULL ELECTROSTATIC EVALUATION FREQUENCY      2
Info: USING VERLET I (r-RESPA) MTS SCHEME.
Info: C1 SPLITTING OF LONG RANGE ELECTROSTATICS
Info: PLACING ATOMS IN PATCHES BY HYDROGEN GROUPS
Info: RIGID BONDS TO HYDROGEN : ALL
Info:         ERROR TOLERANCE : 1e-08
Info:          MAX ITERATIONS : 100
Info: RIGID WATER USING SETTLE ALGORITHM
Info: RANDOM NUMBER SEED     1741407724
Info: USE HYDROGEN BONDS?    NO
Info: Using AMBER format force field!
Info: AMBER PARM FILE        mobley_8449031.prmtop
Info: COORDINATE PDB         mobley_8449031.pdb
Info: Exclusions will be read from PARM file!
Info: SCNB (VDW SCALING)     2
Info: USING ARITHMETIC MEAN TO COMBINE L-J SIGMA PARAMETERS
Info: BINARY COORDINATES     mobley_8449031_min.coor
Info: SUMMARY OF PARAMETERS:
Info: 6 BONDS
Info: 7 ANGLES
Info:   7 HARMONIC
Info:   0 COSINE-BASED
Info: 4 DIHEDRAL
Info: 0 IMPROPER
Info: 0 CROSSTERM
Info: 0 VDW
Info: 21 VDW_PAIRS
Info: 0 NBTHOLE_PAIRS
Info: STRUCTURE SUMMARY:
Info: 4924 ATOMS
Info: 4923 BONDS
Info: 39 ANGLES
Info: 45 DIHEDRALS
Info: 0 IMPROPERS
Info: 0 CROSSTERMS
Info: 5007 EXCLUSIONS
Info: 4917 RIGID BONDS
Info: 9855 DEGREES OF FREEDOM
Info: 1641 HYDROGEN GROUPS
Info: 4 ATOMS IN LARGEST HYDROGEN GROUP
Info: 1641 MIGRATION GROUPS
Info: 4 ATOMS IN LARGEST MIGRATION GROUP
Info: TOTAL MASS = 29539.3 amu
Info: TOTAL CHARGE = -0.000100035 e
Info: MASS DENSITY = 0.716949 g/cm^3
Info: ATOM DENSITY = 0.0719692 atoms/A^3
Info: ADDED 0 IMPLICIT EXCLUSIONS
Info: NONBONDED TABLE R-SQUARED SPACING: 0.0625
Info: NONBONDED TABLE SIZE: 705 POINTS
Info: REMOVING COM VELOCITY 0.0589147 0.0618987 0.120858
TCL: Running for 25000 steps
ETITLE: TS BOND ANGLE DIHED IMPRP ELECT VDW BOUNDARY MISC KINETIC TOTAL TEMP POTENTIAL TOTAL3 TEMPAVG PRESSURE GPRESSURE VOLUME PRESSAVG GPRESSAVG
ENERGY: 0 0.4819 1.4296 1.0976 0.0000 -22575.9062 3892.3703 0.0000 0.0000 3004.1122 -15676.4146 306.7962 -18680.5268 -15675.7968 306.7962 103.5698 145.1391 68418.1883 103.5698 145.1391
ENERGY: 5000 1.0797 1.7848 0.7294 0.0000 -23548.3880 4021.3690 0.0000 0.0000 293.9058 -19229.5193 30.0152 -19523.4251 -19228.7245 47.6742 -496.6060 -441.3059 48007.4927 1.7917 2.0223
ENERGY: 10000 0.8693 2.0346 0.6960 0.0000 -23751.0058 4159.5196 0.0000 0.0000 295.7866 -19292.0997 30.2073 -19587.8863 -19291.2834 30.4904 135.3135 186.0137 47660.9374 -0.7501 -0.6153
ENERGY: 15000 0.5970 3.1349 0.5758 0.0000 -24033.2679 4413.9609 0.0000 0.0000 297.8549 -19317.1444 30.4185 -19614.9993 -19316.5661 30.0021 1484.5886 1548.0299 47098.8668 2.9832 2.8461
ENERGY: 20000 1.4401 2.5896 0.8040 0.0000 -23899.9580 4266.9296 0.0000 0.0000 300.1071 -19328.0875 30.6486 -19628.1946 -19327.3127 30.0675 721.3985 756.3224 47338.3109 2.3554 2.2256
ENERGY: 25000 1.0843 2.9940 0.5899 0.0000 -23647.8243 4000.2525 0.0000 0.0000 294.4196 -19348.4839 30.0677 -19642.9035 -19347.6747 30.1242 -754.5639 -716.0474 47904.1442 3.5629 3.6994
TCL: Running 25000 steps at 60 kelvin.
TCL: Setting parameter langevinTemp to 60
TCL: Running for 25000 steps
ETITLE: TS BOND ANGLE DIHED IMPRP ELECT VDW BOUNDARY MISC KINETIC TOTAL TEMP POTENTIAL TOTAL3 TEMPAVG PRESSURE GPRESSURE VOLUME PRESSAVG GPRESSAVG
ENERGY: 25000 1.0843 2.9940 0.5899 0.0000 -23647.8243 4000.2525 0.0000 0.0000 294.2687 -19348.6348 30.0523 -19642.9035 -19348.0070 30.0523 -766.5907 -716.2634 47904.1442 -766.5907 -716.2634
ENERGY: 30000 1.2083 3.6348 0.7983 0.0000 -23357.7008 3986.7475 0.0000 0.0000 611.8421 -18753.4697 62.4846 -19365.3118 -18752.0351 57.1137 -172.9341 -121.3863 47867.1037 -0.5312 -0.8481
ENERGY: 35000 0.6027 2.3817 0.9914 0.0000 -23518.7490 4105.3137 0.0000 0.0000 583.3886 -18826.0710 59.5788 -19409.4596 -18823.9824 60.1595 498.3789 545.3385 47242.4846 4.4955 4.4374
ENERGY: 40000 0.4975 2.7476 1.2811 0.0000 -23420.6939 3995.6761 0.0000 0.0000 593.6542 -18826.8373 60.6272 -19420.4915 -18825.0429 59.8096 -117.7532 -111.6015 47609.9768 6.7438 7.1057
ENERGY: 45000 1.1117 2.7308 1.3821 0.0000 -23445.8475 4015.0776 0.0000 0.0000 583.7229 -18841.8223 59.6129 -19425.5452 -18840.7181 60.4017 -94.8944 -61.0396 47565.7200 3.1095 3.0132
ENERGY: 50000 0.6923 3.4656 1.0837 0.0000 -23581.9511 4145.5713 0.0000 0.0000 572.5524 -18858.5858 58.4721 -19431.1382 -18857.1916 60.5218 604.1626 664.2322 47336.7432 0.3640 -0.0271
TCL: Running 25000 steps at 90 kelvin.
TCL: Setting parameter langevinTemp to 90
TCL: Running for 25000 steps
ETITLE: TS BOND ANGLE DIHED IMPRP ELECT VDW BOUNDARY MISC KINETIC TOTAL TEMP POTENTIAL TOTAL3 TEMPAVG PRESSURE GPRESSURE VOLUME PRESSAVG GPRESSAVG
ENERGY: 50000 0.6923 3.4656 1.0837 0.0000 -23581.9511 4145.5713 0.0000 0.0000 572.2576 -18858.8806 58.4420 -19431.1382 -18857.6566 58.4420 614.4436 663.7745 47336.7432 614.4436 663.7745
ENERGY: 55000 0.5589 4.5345 1.7134 0.0000 -23000.9733 3865.6775 0.0000 0.0000 875.1781 -18253.3108 89.3779 -19128.4889 -18250.4888 87.6636 -183.8025 -143.1162 47834.2404 1.3058 1.2993
ENERGY: 60000 1.7746 3.8911 0.5224 0.0000 -23132.1529 3970.8547 0.0000 0.0000 876.6813 -18278.4289 89.5314 -19155.1101 -18276.5386 90.2363 324.5744 374.5613 47531.6159 2.1588 1.7429
ENERGY: 65000 1.6580 3.4945 1.3819 0.0000 -22991.7495 3791.1330 0.0000 0.0000 871.1254 -18322.9568 88.9640 -19194.0822 -18320.5593 90.1083 -768.9935 -705.4494 47907.6887 4.2457 4.6137
ENERGY: 70000 0.3501 6.4887 0.8395 0.0000 -23280.9554 4021.6459 0.0000 0.0000 875.4203 -18376.2109 89.4026 -19251.6312 -18373.2803 90.0340 537.1443 571.4744 47265.4110 2.6765 2.4984
ENERGY: 75000 1.1645 4.7254 1.2029 0.0000 -23199.3704 3936.1553 0.0000 0.0000 887.6150 -18368.5074 90.6480 -19256.1224 -18365.0998 89.9401 -25.0120 29.7444 47406.1065 5.6903 5.7084
TCL: Running 25000 steps at 120 kelvin.
TCL: Setting parameter langevinTemp to 120
TCL: Running for 25000 steps
ETITLE: TS BOND ANGLE DIHED IMPRP ELECT VDW BOUNDARY MISC KINETIC TOTAL TEMP POTENTIAL TOTAL3 TEMPAVG PRESSURE GPRESSURE VOLUME PRESSAVG GPRESSAVG
ENERGY: 75000 1.1645 4.7254 1.2029 0.0000 -23199.3704 3936.1553 0.0000 0.0000 887.1870 -18368.9353 90.6043 -19256.1224 -18367.2934 90.6043 -26.0760 30.2313 47406.1065 -26.0760 30.2313
ENERGY: 80000 1.9702 5.0405 1.4767 0.0000 -22730.2101 3793.2471 0.0000 0.0000 1172.6913 -17755.7844 119.7616 -18928.4757 -17752.4325 116.7967 -128.5813 -66.2795 47969.7673 3.5122 3.5406
ENERGY: 85000 1.4671 5.9235 1.0441 0.0000 -22772.5268 3795.2940 0.0000 0.0000 1209.2892 -17759.5089 123.4991 -18968.7981 -17757.0298 120.1694 -167.4266 -105.0368 47844.0908 0.3146 0.5449
ENERGY: 90000 1.2594 9.6628 1.2952 0.0000 -22891.6922 3882.0549 0.0000 0.0000 1171.1616 -17826.2583 119.6053 -18997.4199 -17822.6599 121.3585 218.9441 263.6207 47812.4299 5.7574 5.8689
ENERGY: 95000 1.8503 3.2096 0.7473 0.0000 -22886.3304 3864.8447 0.0000 0.0000 1189.3322 -17826.3463 121.4610 -19015.6785 -17823.3011 119.4782 62.7252 97.0193 47927.4162 1.8858 1.7499
ENERGY: 100000 1.3320 4.2767 1.9075 0.0000 -22727.2422 3720.1482 0.0000 0.0000 1172.3473 -17827.2305 119.7264 -18999.5778 -17823.9308 121.1331 -732.8175 -693.1667 48346.5550 4.8135 5.2698
TCL: Running 25000 steps at 150 kelvin.
TCL: Setting parameter langevinTemp to 150
TCL: Running for 25000 steps
ETITLE: TS BOND ANGLE DIHED IMPRP ELECT VDW BOUNDARY MISC KINETIC TOTAL TEMP POTENTIAL TOTAL3 TEMPAVG PRESSURE GPRESSURE VOLUME PRESSAVG GPRESSAVG
ENERGY: 100000 1.3320 4.2767 1.9075 0.0000 -22727.2422 3720.1482 0.0000 0.0000 1171.7754 -17827.8024 119.6680 -18999.5778 -17825.5222 119.6680 -755.0108 -692.8709 48346.5550 -755.0108 -692.8709
ENERGY: 105000 1.6488 8.8410 2.7942 0.0000 -22405.2956 3759.8133 0.0000 0.0000 1462.5225 -17169.6758 149.3607 -18632.1983 -17165.2476 147.2397 461.0480 504.4843 48014.3076 -1.0253 -1.4890
ENERGY: 110000 2.4362 8.3666 0.8989 0.0000 -22509.6302 3825.4777 0.0000 0.0000 1480.1069 -17192.3439 151.1565 -18672.4508 -17188.3628 149.7673 515.3553 589.6699 48108.6221 -0.5177 -0.5172
ENERGY: 115000 4.3301 5.3362 1.1952 0.0000 -22336.1534 3669.4369 0.0000 0.0000 1495.0848 -17160.7701 152.6861 -18655.8549 -17157.0587 151.1271 -99.4651 -66.6442 48204.2353 4.6242 4.7811
ENERGY: 120000 0.5384 5.9685 1.4402 0.0000 -22402.8485 3707.7771 0.0000 0.0000 1460.6987 -17226.4257 149.1744 -18687.1244 -17223.2687 150.2293 42.3304 75.1889 48114.7668 -0.2076 -0.1903
ENERGY: 125000 2.6883 4.8035 1.1951 0.0000 -22425.4726 3682.3955 0.0000 0.0000 1438.9267 -17295.4635 146.9510 -18734.3903 -17290.2015 150.1033 -346.1814 -272.6549 48230.7104 1.7124 2.0030
TCL: Running 50000 steps at 180 kelvin.
TCL: Setting parameter langevinTemp to 180
TCL: Running for 50000 steps
ETITLE: TS BOND ANGLE DIHED IMPRP ELECT VDW BOUNDARY MISC KINETIC TOTAL TEMP POTENTIAL TOTAL3 TEMPAVG PRESSURE GPRESSURE VOLUME PRESSAVG GPRESSAVG
ENERGY: 125000 2.6883 4.8035 1.1951 0.0000 -22425.4726 3682.3955 0.0000 0.0000 1438.1747 -17296.2156 146.8742 -18734.3903 -17293.4769 146.8742 -339.8583 -271.9361 48230.7104 -339.8583 -271.9361
ENERGY: 135000 1.8170 8.7929 1.5497 0.0000 -21964.4758 3707.5197 0.0000 0.0000 1701.4601 -16543.3363 173.7623 -18244.7964 -16538.5563 179.3907 960.3945 1024.2011 48043.1509 -2.2733 -2.8572
ENERGY: 145000 0.9912 10.0225 2.9066 0.0000 -21890.2630 3630.6867 0.0000 0.0000 1727.8097 -16517.8463 176.4532 -18245.6560 -16514.5491 180.2913 743.2206 798.7190 47731.5578 3.1673 3.4596
ENERGY: 155000 0.5284 7.2268 1.9117 0.0000 -21887.5518 3543.4759 0.0000 0.0000 1771.8427 -16562.5663 180.9501 -18334.4090 -16557.1131 180.4976 34.0055 71.3900 48277.8933 3.7171 3.7917
ENERGY: 165000 0.6370 4.3145 1.3399 0.0000 -21835.1029 3460.1520 0.0000 0.0000 1762.5237 -16606.1358 179.9984 -18368.6595 -16601.9055 180.0265 -460.5211 -412.3397 48315.0728 2.2097 2.1541
ENERGY: 175000 1.7439 8.2816 1.2963 0.0000 -21929.7225 3619.6356 0.0000 0.0000 1803.4456 -16495.3195 184.1776 -18298.7651 -16490.1431 179.0703 503.3754 562.2138 47856.1147 1.9100 1.5868
TCL: Running 50000 steps at 210 kelvin.
TCL: Setting parameter langevinTemp to 210
TCL: Running for 50000 steps
ETITLE: TS BOND ANGLE DIHED IMPRP ELECT VDW BOUNDARY MISC KINETIC TOTAL TEMP POTENTIAL TOTAL3 TEMPAVG PRESSURE GPRESSURE VOLUME PRESSAVG GPRESSAVG
ENERGY: 175000 1.7439 8.2816 1.2963 0.0000 -21929.7226 3619.6356 0.0000 0.0000 1802.5933 -16496.1718 184.0906 -18298.7651 -16493.4371 184.0906 485.4848 562.8536 47856.1147 485.4848 562.8536
ENERGY: 185000 1.1163 8.9894 1.1635 0.0000 -20840.1826 3245.4271 0.0000 0.0000 2039.7412 -15543.7451 208.3094 -17583.4863 -15538.8293 208.6359 311.8172 455.6322 47751.6036 1.6025 1.0690
ENERGY: 195000 2.4760 7.3249 3.2931 0.0000 -20675.6833 3117.4128 0.0000 0.0000 2035.7411 -15509.4353 207.9009 -17545.1764 -15505.6441 210.7791 -309.6959 -205.0230 47851.6936 0.7033 1.0980
ENERGY: 205000 2.1729 6.6699 1.9297 0.0000 -20565.9347 3087.1003 0.0000 0.0000 2067.6613 -15400.4005 211.1607 -17468.0618 -15395.9966 210.9697 -230.0332 -125.9526 47880.1853 4.7717 5.3588
ENERGY: 215000 4.0479 7.8659 1.0345 0.0000 -20688.5911 3128.4758 0.0000 0.0000 2051.0640 -15496.1031 209.4657 -17547.1671 -15490.7352 210.8315 -230.5025 -189.8705 48319.2118 2.5092 2.8669
ENERGY: 225000 1.5670 6.2121 1.6796 0.0000 -20695.3918 3184.6000 0.0000 0.0000 2097.8379 -15403.4953 214.2425 -17501.3331 -15399.0476 210.2521 336.5095 416.4605 47662.7120 5.1262 4.9453
TCL: Running 50000 steps at 240 kelvin.
TCL: Setting parameter langevinTemp to 240
TCL: Running for 50000 steps
ETITLE: TS BOND ANGLE DIHED IMPRP ELECT VDW BOUNDARY MISC KINETIC TOTAL TEMP POTENTIAL TOTAL3 TEMPAVG PRESSURE GPRESSURE VOLUME PRESSAVG GPRESSAVG
ENERGY: 225000 1.5670 6.2121 1.6796 0.0000 -20695.3918 3184.6000 0.0000 0.0000 2096.8034 -15404.5297 214.1369 -17501.3331 -15400.6173 214.1369 348.5611 415.7874 47662.7120 348.5611 415.7874
ENERGY: 235000 1.4522 10.8599 1.9583 0.0000 -19520.0469 2699.8223 0.0000 0.0000 2357.0730 -14448.8812 240.7170 -16805.9542 -14444.3813 241.4814 -723.3878 -607.3863 48230.7897 -0.4775 -0.6045
ENERGY: 245000 3.9671 9.6515 3.0109 0.0000 -19587.9132 2732.2204 0.0000 0.0000 2379.3494 -14459.7139 242.9920 -16839.0633 -14455.0886 238.9614 -745.4853 -682.2961 48609.8264 2.3338 2.1521
ENERGY: 255000 3.7851 8.8545 1.4086 0.0000 -19652.8471 2787.4511 0.0000 0.0000 2337.9902 -14513.3576 238.7682 -16851.3478 -14507.5885 240.2209 -818.7564 -722.7264 49208.0344 5.3763 5.5613
ENERGY: 265000 1.2999 8.6557 3.6344 0.0000 -19547.9805 2750.5602 0.0000 0.0000 2295.3609 -14488.4693 234.4146 -16783.8302 -14485.7230 240.0930 -511.8013 -449.2184 48477.3411 3.1105 3.4028
ENERGY: 275000 2.9273 7.3345 2.8226 0.0000 -19757.0709 2988.8755 0.0000 0.0000 2388.1925 -14366.9186 243.8951 -16755.1110 -14363.3504 241.3606 751.8274 780.8425 48215.3000 2.5626 2.2090
TCL: Running 50000 steps at 270 kelvin.
TCL: Setting parameter langevinTemp to 270
TCL: Running for 50000 steps
ETITLE: TS BOND ANGLE DIHED IMPRP ELECT VDW BOUNDARY MISC KINETIC TOTAL TEMP POTENTIAL TOTAL3 TEMPAVG PRESSURE GPRESSURE VOLUME PRESSAVG GPRESSAVG
ENERGY: 275000 2.9273 7.3345 2.8226 0.0000 -19757.0709 2988.8755 0.0000 0.0000 2386.9990 -14368.1121 243.7732 -16755.1110 -14365.3161 243.7732 695.3382 780.8218 48215.3000 695.3382 780.8218
ENERGY: 285000 5.0976 9.0420 1.1175 0.0000 -18696.2553 2603.7137 0.0000 0.0000 2668.0520 -13409.2324 272.4759 -16077.2844 -13407.2315 272.2689 44.8008 122.5756 49061.8248 5.2938 5.0775
ENERGY: 295000 2.1394 14.0241 1.2384 0.0000 -18703.3558 2630.6779 0.0000 0.0000 2659.2943 -13395.9817 271.5815 -16055.2760 -13388.5261 270.0565 202.7180 303.1935 49257.1732 4.4500 4.2792
ENERGY: 305000 2.5819 10.7728 3.2820 0.0000 -18632.0357 2571.6250 0.0000 0.0000 2648.0128 -13395.7613 270.4294 -16043.7741 -13391.4822 270.5819 -286.0329 -147.5849 49693.7635 6.8783 6.7263
ENERGY: 315000 2.2007 6.5802 5.6480 0.0000 -18887.4952 2765.5447 0.0000 0.0000 2590.6645 -13516.8572 264.5726 -16107.5216 -13513.7258 270.6416 741.9247 844.7130 49013.5791 -1.4394 -1.2961
ENERGY: 325000 1.3848 10.6854 4.2735 0.0000 -18875.4080 2655.0980 0.0000 0.0000 2642.5685 -13561.3979 269.8734 -16203.9664 -13553.1065 271.3382 199.1104 249.1349 49077.3355 4.6454 4.7381
TCL: Running 1000000 steps at 300 kelvin.
TCL: Setting parameter langevinTemp to 300
TCL: Running for 1000000 steps
ETITLE: TS BOND ANGLE DIHED IMPRP ELECT VDW BOUNDARY MISC KINETIC TOTAL TEMP POTENTIAL TOTAL3 TEMPAVG PRESSURE GPRESSURE VOLUME PRESSAVG GPRESSAVG
ENERGY: 325000 1.3848 10.6854 4.2735 0.0000 -18875.4080 2655.0980 0.0000 0.0000 2641.2419 -13562.7245 269.7379 -16203.9664 -13558.9236 269.7379 167.9380 251.9637 49077.3355 167.9380 251.9637
ENERGY: 525000 3.1915 7.6285 4.9847 0.0000 -17848.5092 2471.9231 0.0000 0.0000 2951.7665 -12409.0150 301.4503 -15360.7814 -12402.4856 300.6108 410.9467 501.8016 50739.1239 4.3568 3.8108
ENERGY: 725000 2.8947 13.0519 3.3597 0.0000 -17890.3290 2440.5631 0.0000 0.0000 2939.9820 -12490.4776 300.2468 -15430.4596 -12484.4772 299.6705 155.3301 279.2029 50702.3950 4.0266 3.5888
ENERGY: 925000 2.2796 10.4524 1.7736 0.0000 -17893.7324 2350.2810 0.0000 0.0000 2945.0151 -12583.9306 300.7608 -15528.9457 -12578.1360 300.0959 -480.9071 -340.8863 50826.7672 1.7192 1.3439
ENERGY: 1125000 4.7553 9.5590 3.0316 0.0000 -17667.4896 2309.1593 0.0000 0.0000 2928.6364 -12412.3481 299.0881 -15340.9845 -12406.5839 300.6681 -451.0932 -425.2838 51108.9545 2.9795 3.3417
ENERGY: 1325000 2.3459 10.1253 5.6692 0.0000 -17741.8580 2299.6486 0.0000 0.0000 2995.5772 -12428.4917 305.9245 -15424.0689 -12423.8565 300.6347 -579.5716 -556.8267 51604.7036 2.5075 1.9772
TCL: Exiting due to exit command.
