Info: SIMULATION PARAMETERS:
Info: TIMESTEP               2
Info: NUMBER OF STEPS        0
Info: STEPS PER CYCLE        10
Info: PERIODIC CELL BASIS 1  31.0682 0 0
Info: PERIODIC CELL BASIS 2  0 29.6633 0
Info: PERIODIC CELL BASIS 3  0 0 33.0298
Info: PERIODIC CELL CENTER   0 0 0
Info: WRAPPING WATERS AROUND PERIODIC BOUNDARIES ON OUTPUT.
Info: WRAPPING ALL CLUSTERS AROUND PERIODIC BOUNDARIES ON OUTPUT.
Info: FIRST LDB TIMESTEP     50
Info: LAST LDB TIMESTEP     -1
Info: HOM BACKGROUND SCALING 1
Info: PME BACKGROUND SCALING 1
Info: MIN ATOMS PER PATCH    40
Info: EMPTY PATCH LOAD       40 ATOMS
Info: VELOCITY FILE          mobley_8809274_equil.vel
Info: CENTER OF MASS MOVING INITIALLY? NO
Info: DIELECTRIC             1
Info: EXCLUDE                SCALED ONE-FOUR
Info: 1-4 ELECTROSTATICS SCALED BY 0.833333
Info: MODIFIED 1-4 VDW PARAMETERS WILL BE USED
Info: DCD FILENAME           mobley_8809274_prod.dcd
Info: DCD FREQUENCY          100000
Info: DCD FIRST STEP         100000
Info: DCD FILE WILL CONTAIN UNIT CELL DATA
Info: XST FILENAME           mobley_8809274_prod.xst
Info: XST FREQUENCY          100000
Info: NO VELOCITY DCD OUTPUT
Info: NO FORCE DCD OUTPUT
Info: OUTPUT FILENAME        mobley_8809274_prod
Info: BINARY OUTPUT FILES WILL BE USED
Info: RESTART FILENAME       mobley_8809274_prod.restart
Info: RESTART FREQUENCY      100000
Info: BINARY RESTART FILES WILL BE USED
Info: CUTOFF                 9
Info: PAIRLIST DISTANCE      11
Info: PAIRLIST SHRINK RATE   0.01
Info: PAIRLIST GROW RATE     0.01
Info: PAIRLIST TRIGGER       0.3
Info: PAIRLISTS PER CYCLE    2
Info: PAIRLISTS ENABLED
Info: MARGIN                 2
Info: HYDROGEN GROUP CUTOFF  2.5
Info: PATCH DIMENSION        15.5
Info: ENERGY OUTPUT STEPS    100000
Info: ENERGY EVALUATION STEPS    100000
Info: OUTPUT ENERGY PRECISION 4
Info: CROSSTERM ENERGY INCLUDED IN DIHEDRAL
Info: TIMING OUTPUT STEPS    1000000
Info: PRESSURE OUTPUT STEPS  100000
Info: ALCHEMICAL FEP ON
Info: FEP CURRENT LAMBDA VALUE     0
Info: FEP COMPARISON LAMBDA VALUE  0.05
Info: FEP INTRA-ALCHEMICAL NON-BONDED INTERACTIONS WILL BE RETAINED
Info: FEP INTRA-ALCHEMICAL BONDED INTERACTIONS WILL BE RETAINED
Info: FEP VDW SHIFTING COEFFICIENT 5
Info: FEP ELEC. ACTIVE FOR ANNIHILATED PARTICLES BETWEEN LAMBDA = 0 AND LAMBDA = 0.5
Info: FEP ELEC. ACTIVE FOR EXNIHILATED PARTICLES BETWEEN LAMBDA = 0.5 AND LAMBDA = 1
Info: FEP VDW ACTIVE FOR ANNIHILATED PARTICLES BETWEEN LAMBDA = 0 AND LAMBDA = 1
Info: FEP VDW ACTIVE FOR EXNIHILATED PARTICLES BETWEEN LAMBDA = 0 AND LAMBDA = 1
Info: FEP BOND ACTIVE FOR ANNIHILATED PARTICLES BETWEEN LAMBDA = 1 AND LAMBDA = 1
Info: FEP BOND ACTIVE FOR EXNIHILATED PARTICLES BETWEEN LAMBDA = 0 AND LAMBDA = 0
Info: LANGEVIN DYNAMICS ACTIVE
Info: LANGEVIN TEMPERATURE   300
Info: LANGEVIN USING BBK INTEGRATOR
Info: LANGEVIN DAMPING COEFFICIENT IS 1 INVERSE PS
Info: LANGEVIN DYNAMICS APPLIED TO HYDROGENS
Info: LANGEVIN PISTON PRESSURE CONTROL ACTIVE
Info:        TARGET PRESSURE IS 1.01325 BAR
Info:     OSCILLATION PERIOD IS 50 FS
Info:             DECAY TIME IS 25 FS
Info:     PISTON TEMPERATURE IS 300 K
Info:       PRESSURE CONTROL IS GROUP-BASED
Info:    INITIAL STRAIN RATE IS 0.000366499 0.000366499 0.000366499
Info:       CELL FLUCTUATION IS ISOTROPIC
Info: PARTICLE MESH EWALD (PME) ACTIVE
Info: PME TOLERANCE               1e-06
Info: PME EWALD COEFFICIENT       0.348832
Info: PME INTERPOLATION ORDER     4
Info: PME GRID DIMENSIONS         32 32 36
Info: PME MAXIMUM GRID SPACING    1
Info: PME CALCULATION WILL BE PERFORMED ON GPU
Info: FULL ELECTROSTATIC EVALUATION FREQUENCY      2
Info: USING VERLET I (r-RESPA) MTS SCHEME.
Info: C1 SPLITTING OF LONG RANGE ELECTROSTATICS
Info: PLACING ATOMS IN PATCHES BY HYDROGEN GROUPS
Info: RIGID BONDS TO HYDROGEN : ALL
Info:         ERROR TOLERANCE : 1e-08
Info:          MAX ITERATIONS : 100
Info: RIGID WATER USING SETTLE ALGORITHM
Info: RANDOM NUMBER SEED     1742267308
Info: USE HYDROGEN BONDS?    NO
Info: Using AMBER format force field!
Info: AMBER PARM FILE        mobley_8809274.prmtop
Info: COORDINATE PDB         mobley_8809274.pdb
Info: Exclusions will be read from PARM file!
Info: SCNB (VDW SCALING)     2
Info: USING ARITHMETIC MEAN TO COMBINE L-J SIGMA PARAMETERS
Info: BINARY COORDINATES     mobley_8809274_equil.coor
Info: SUMMARY OF PARAMETERS:
Info: 6 BONDS
Info: 5 ANGLES
Info:   5 HARMONIC
Info:   0 COSINE-BASED
Info: 3 DIHEDRAL
Info: 0 IMPROPER
Info: 0 CROSSTERM
Info: 0 VDW
Info: 21 VDW_PAIRS
Info: 0 NBTHOLE_PAIRS
Info: To read alchdata from file: mobley_8809274.pdb
Info: To read alchflag data from column: 5
Info: STRUCTURE SUMMARY:
Info: 2928 ATOMS
Info: 2928 BONDS
Info: 24 ANGLES
Info: 36 DIHEDRALS
Info: 0 IMPROPERS
Info: 0 CROSSTERMS
Info: 2979 EXCLUSIONS
Info: 2918 RIGID BONDS
Info: ALCH: 0 ATOMS TO DISAPPEAR IN FINAL STATE
Info: ALCH: 15 ATOMS TO APPEAR IN FINAL STATE
Info: 5866 DEGREES OF FREEDOM
Info: 981 HYDROGEN GROUPS
Info: 3 ATOMS IN LARGEST HYDROGEN GROUP
Info: 981 MIGRATION GROUPS
Info: 3 ATOMS IN LARGEST MIGRATION GROUP
Info: TOTAL MASS = 17639.6 amu
Info: TOTAL CHARGE = 9.99644e-05 e
Info: MASS DENSITY = 0.962294 g/cm^3
Info: ATOM DENSITY = 0.09619 atoms/A^3
Info: ADDED 0 IMPLICIT EXCLUSIONS
Info: NONBONDED TABLE R-SQUARED SPACING: 0.0625
Info: NONBONDED TABLE SIZE: 705 POINTS
Info: REMOVING COM VELOCITY -0.208835 0.0575432 -0.0504884
Info: Use 3D box decompostion in PME FFT.
Info: Updated CUDA force table with 4096 elements.
Info: Updated CUDA LJ table with 6 x 6 elements.
Info: Found 17 unique exclusion lists needing 36 bytes
TCL: Running for 1500000 steps
ETITLE: TS BOND ANGLE DIHED IMPRP ELECT VDW BOUNDARY MISC KINETIC TOTAL TEMP POTENTIAL TOTALAVG TEMPAVG PRESSURE GPRESSURE VOLUME PRESSAVG GPRESSAVG
ENERGY: 0 3.7889 4.8042 3.5650 0.0000 -10655.9944 1507.2990 0.0000 0.0000 1750.7034 -7385.8339 300.3730 -9136.5373 -7385.8339 300.3730 441.8338 508.4354 30439.7597 441.8338 508.4354
ENERGY: 300000 5.7375 2.7150 1.0941 0.0000 -10662.6249 1467.0090 0.0000 0.0000 1777.8863 -7408.1830 305.0369 -9186.0693 -7421.0642 299.0531 141.2887 182.2167 29986.3755 -97.5646 -35.2596
ENERGY: 600000 2.3146 3.6244 3.0071 0.0000 -10481.5329 1326.0662 0.0000 0.0000 1726.6631 -7419.8574 296.2484 -9146.5205 -7424.7539 297.7748 -456.8377 -410.0572 29482.3187 -138.7278 -78.6965
ENERGY: 900000 5.2541 4.5287 5.6654 0.0000 -10603.3379 1433.3248 0.0000 0.0000 1710.3480 -7444.2169 293.4491 -9154.5649 -7407.3505 297.9274 87.8169 96.0121 29796.1197 -13.1929 37.5153
ENERGY: 1200000 1.3423 4.3531 3.2248 0.0000 -10718.8016 1526.4385 0.0000 0.0000 1770.4426 -7413.0003 303.7597 -9183.4429 -7407.2820 298.3269 706.8380 742.8945 29907.8598 -23.2940 24.8912
ENERGY: 1500000 2.5022 2.3578 1.1155 0.0000 -10536.0327 1440.2573 0.0000 0.0000 1743.7170 -7346.0828 299.1743 -9089.7998 -7398.9873 298.4691 43.9363 83.8315 30425.7780 -50.9535 -4.1992
TCL: Running FEP window   2: Lambda1 0.05   Lambda2 0.1    [dLambda 0.05  ]
TCL: Setting parameter firsttimestep to 0
TCL: Setting parameter alchLambda to 0.05
Info: NONBONDED TABLE R-SQUARED SPACING: 0.0625
Info: NONBONDED TABLE SIZE: 705 POINTS
TCL: Setting parameter alchLambda2 to 0.1
Info: NONBONDED TABLE R-SQUARED SPACING: 0.0625
Info: NONBONDED TABLE SIZE: 705 POINTS
TCL: Running for 1500000 steps
ETITLE: TS BOND ANGLE DIHED IMPRP ELECT VDW BOUNDARY MISC KINETIC TOTAL TEMP POTENTIAL TOTALAVG TEMPAVG PRESSURE GPRESSURE VOLUME PRESSAVG GPRESSAVG
ENERGY: 0 2.5022 2.3578 1.1155 0.0000 -10536.0342 1442.7194 0.0000 0.0000 1742.8672 -7344.4720 299.0285 -9087.3393 -7344.4720 299.0285 13.3498 88.2819 30425.7780 13.3498 88.2819
ENERGY: 300000 1.1637 4.8164 2.4487 0.0000 -10572.2631 1431.5157 0.0000 0.0000 1755.7302 -7376.5882 301.2355 -9132.3184 -7388.8612 300.5913 -3.1398 6.9851 30485.7922 -155.8686 -104.1164
ENERGY: 600000 2.0614 3.4824 3.4861 0.0000 -10609.0723 1427.2230 0.0000 0.0000 1756.4861 -7416.3333 301.3652 -9172.8194 -7397.6390 301.6023 -235.4743 -150.0578 30264.2275 -123.5529 -59.8152
ENERGY: 900000 2.7745 4.4325 2.1273 0.0000 -10630.6471 1431.5562 0.0000 0.0000 1750.4698 -7439.2867 300.3329 -9189.7566 -7400.6253 302.2615 -136.2036 -22.8431 29940.9515 -97.7863 -22.0803
ENERGY: 1200000 1.9184 4.6242 5.8928 0.0000 -10457.8366 1389.8894 0.0000 0.0000 1711.5285 -7343.9833 293.6517 -9055.5118 -7385.3942 301.9169 -224.5333 -186.8714 30150.3466 -63.8697 4.0838
ENERGY: 1500000 2.2008 4.6848 2.6688 0.0000 -10606.1678 1428.8223 0.0000 0.0000 1721.8883 -7445.9028 295.4291 -9167.7911 -7398.9596 301.2921 -175.9065 -130.0617 29941.6440 -28.3906 37.8543
TCL: Running FEP window   3: Lambda1 0.1    Lambda2 0.15000000000000002 [dLambda 0.05000000000000002]
TCL: Setting parameter firsttimestep to 0
TCL: Setting parameter alchLambda to 0.1
Info: NONBONDED TABLE R-SQUARED SPACING: 0.0625
Info: NONBONDED TABLE SIZE: 705 POINTS
TCL: Setting parameter alchLambda2 to 0.15000000000000002
Info: NONBONDED TABLE R-SQUARED SPACING: 0.0625
Info: NONBONDED TABLE SIZE: 705 POINTS
TCL: Running for 1500000 steps
ETITLE: TS BOND ANGLE DIHED IMPRP ELECT VDW BOUNDARY MISC KINETIC TOTAL TEMP POTENTIAL TOTALAVG TEMPAVG PRESSURE GPRESSURE VOLUME PRESSAVG GPRESSAVG
ENERGY: 0 2.2008 4.6848 2.6688 0.0000 -10606.1681 1429.2167 0.0000 0.0000 1721.0278 -7446.3693 295.2815 -9167.3971 -7446.3693 295.2815 -204.7919 -126.5225 29941.6440 -204.7919 -126.5225
ENERGY: 300000 5.6460 4.1015 1.2090 0.0000 -10553.8377 1350.3128 0.0000 0.0000 1727.6495 -7464.9189 296.4176 -9192.5684 -7415.3709 298.8469 -772.0930 -791.0486 30081.8922 105.6252 136.3109
ENERGY: 600000 2.9932 3.7581 2.1727 0.0000 -10703.9874 1521.0468 0.0000 0.0000 1717.3193 -7456.6973 294.6452 -9174.0165 -7409.9249 300.3272 756.0980 830.2099 29693.2285 200.7723 261.1140
ENERGY: 900000 4.5181 8.0905 2.8620 0.0000 -10780.1820 1557.6269 0.0000 0.0000 1759.2688 -7447.8158 301.8426 -9207.0845 -7413.4661 301.3974 803.5628 894.3748 29779.7948 203.8835 268.7644
ENERGY: 1200000 3.8535 3.1705 1.8207 0.0000 -10607.4603 1461.4589 0.0000 0.0000 1699.4319 -7437.7249 291.5762 -9137.1567 -7410.5490 300.8395 373.0927 388.8884 29799.1638 190.2535 256.4376
ENERGY: 1500000 3.5194 3.0646 1.4204 0.0000 -10752.2336 1486.2405 0.0000 0.0000 1680.2128 -7577.7760 288.2787 -9257.9888 -7410.2637 300.6372 448.4813 450.3711 29400.0051 234.1023 295.5667
TCL: Running FEP window   4: Lambda1 0.15000000000000002 Lambda2 0.2    [dLambda 0.04999999999999999]
TCL: Setting parameter firsttimestep to 0
TCL: Setting parameter alchLambda to 0.15000000000000002
Info: NONBONDED TABLE R-SQUARED SPACING: 0.0625
Info: NONBONDED TABLE SIZE: 705 POINTS
TCL: Setting parameter alchLambda2 to 0.2
Info: NONBONDED TABLE R-SQUARED SPACING: 0.0625
Info: NONBONDED TABLE SIZE: 705 POINTS
TCL: Running for 1500000 steps
ETITLE: TS BOND ANGLE DIHED IMPRP ELECT VDW BOUNDARY MISC KINETIC TOTAL TEMP POTENTIAL TOTALAVG TEMPAVG PRESSURE GPRESSURE VOLUME PRESSAVG GPRESSAVG
ENERGY: 0 3.5194 3.0646 1.4204 0.0000 -10752.2333 1486.1894 0.0000 0.0000 1679.3246 -7578.7151 288.1263 -9258.0396 -7578.7151 288.1263 354.3455 453.4887 29400.0051 354.3455 453.4887
ENERGY: 300000 2.7319 2.4621 4.6026 0.0000 -10436.5386 1327.0778 0.0000 0.0000 1759.9419 -7339.7223 301.9581 -9099.6643 -7422.2545 299.4835 -679.9859 -660.2972 30291.6450 -187.3745 -148.3809
ENERGY: 600000 1.2049 3.4177 4.1079 0.0000 -10611.7443 1427.5970 0.0000 0.0000 1796.5329 -7378.8840 308.2361 -9175.4168 -7410.0395 300.4127 -3.2814 43.2059 29805.9125 -198.6229 -159.6404
ENERGY: 900000 2.8677 2.5317 2.4985 0.0000 -10530.8130 1305.1699 0.0000 0.0000 1714.8498 -7502.8954 294.2215 -9217.7452 -7424.9887 298.7486 -1077.8515 -1080.8787 29963.8097 -180.8318 -136.4783
ENERGY: 1200000 3.8986 1.6725 3.2323 0.0000 -10504.2799 1376.4804 0.0000 0.0000 1790.9078 -7328.0884 307.2710 -9118.9962 -7418.4693 299.4551 -588.5243 -528.8879 30606.2519 -285.5300 -242.9047
ENERGY: 1500000 2.7471 3.5413 1.2775 0.0000 -10610.1129 1447.4984 0.0000 0.0000 1730.6838 -7424.3649 296.9382 -9155.0487 -7415.2365 299.0325 -54.8952 50.4328 30242.9463 -251.9509 -205.4990
TCL: Running FEP window   5: Lambda1 0.2    Lambda2 0.25   [dLambda 0.04999999999999999]
TCL: Setting parameter firsttimestep to 0
TCL: Setting parameter alchLambda to 0.2
Info: NONBONDED TABLE R-SQUARED SPACING: 0.0625
Info: NONBONDED TABLE SIZE: 705 POINTS
TCL: Setting parameter alchLambda2 to 0.25
Info: NONBONDED TABLE R-SQUARED SPACING: 0.0625
Info: NONBONDED TABLE SIZE: 705 POINTS
TCL: Running for 1500000 steps
ETITLE: TS BOND ANGLE DIHED IMPRP ELECT VDW BOUNDARY MISC KINETIC TOTAL TEMP POTENTIAL TOTALAVG TEMPAVG PRESSURE GPRESSURE VOLUME PRESSAVG GPRESSAVG
ENERGY: 0 2.7471 3.5413 1.2775 0.0000 -10610.1141 1448.1273 0.0000 0.0000 1729.8258 -7424.5953 296.7910 -9154.4210 -7424.5953 296.7910 -30.5678 55.3622 30242.9463 -30.5678 55.3622
ENERGY: 300000 4.5054 4.9726 1.3744 0.0000 -10606.9949 1473.2706 0.0000 0.0000 1706.8719 -7416.0000 292.8527 -9122.8718 -7392.3009 295.8096 63.3318 88.0680 30666.9250 117.4652 156.8744
ENERGY: 600000 3.7599 3.1501 1.1623 0.0000 -10548.9147 1447.4547 0.0000 0.0000 1722.9991 -7370.3888 295.6197 -9093.3878 -7384.8143 296.8523 166.5819 217.5310 30155.1572 83.6526 137.1096
ENERGY: 900000 3.0504 5.7816 4.9702 0.0000 -10575.1413 1413.4534 0.0000 0.0000 1769.9579 -7377.9277 303.6766 -9147.8857 -7390.3349 299.0874 -191.1439 -167.6380 30283.9016 38.0208 91.0477
ENERGY: 1200000 6.7935 3.8967 2.9936 0.0000 -10626.1939 1439.5431 0.0000 0.0000 1787.8762 -7385.0908 306.7509 -9172.9670 -7383.7444 299.6705 -244.0165 -164.7288 30120.2142 -25.9543 27.0899
ENERGY: 1500000 3.5527 4.7552 3.7055 0.0000 -10471.1877 1371.9973 0.0000 0.0000 1759.4067 -7327.7703 301.8663 -9087.1770 -7378.7696 300.3869 -635.0169 -604.0241 30712.6561 -98.7219 -46.5718
TCL: Running FEP window   6: Lambda1 0.25   Lambda2 0.3    [dLambda 0.04999999999999999]
TCL: Setting parameter firsttimestep to 0
TCL: Setting parameter alchLambda to 0.25
Info: NONBONDED TABLE R-SQUARED SPACING: 0.0625
Info: NONBONDED TABLE SIZE: 705 POINTS
TCL: Setting parameter alchLambda2 to 0.3
Info: NONBONDED TABLE R-SQUARED SPACING: 0.0625
Info: NONBONDED TABLE SIZE: 705 POINTS
TCL: Running for 1500000 steps
ETITLE: TS BOND ANGLE DIHED IMPRP ELECT VDW BOUNDARY MISC KINETIC TOTAL TEMP POTENTIAL TOTALAVG TEMPAVG PRESSURE GPRESSURE VOLUME PRESSAVG GPRESSAVG
ENERGY: 0 3.5527 4.7552 3.7054 0.0000 -10471.1879 1373.2518 0.0000 0.0000 1758.5751 -7327.3476 301.7236 -9085.9227 -7327.3476 301.7236 -679.7338 -593.6445 30712.6561 -679.7338 -593.6445
ENERGY: 300000 2.4226 3.8036 1.9864 0.0000 -10637.1210 1434.7692 0.0000 0.0000 1737.1882 -7456.9511 298.0542 -9194.1393 -7409.1061 299.6913 171.2238 203.9614 29603.3773 -105.4709 -69.9473
ENERGY: 600000 1.3577 6.0171 2.6216 0.0000 -10759.1887 1558.0619 0.0000 0.0000 1760.0617 -7431.0687 301.9786 -9191.1305 -7394.5091 301.1992 1103.9778 1161.9475 29766.1211 19.4600 72.8492
ENERGY: 900000 4.4837 3.0888 1.5256 0.0000 -10750.5770 1460.1368 0.0000 0.0000 1822.0716 -7459.2705 312.6178 -9281.3420 -7416.6143 300.5360 -51.9330 25.1080 29965.0230 -53.0496 -4.8078
ENERGY: 1200000 3.4425 5.8796 0.7408 0.0000 -10565.6287 1370.0266 0.0000 0.0000 1758.1957 -7427.3435 301.6585 -9185.5392 -7421.5968 299.6904 -751.0832 -659.5932 30306.1204 -147.5848 -89.9362
ENERGY: 1500000 2.7371 1.9388 2.6601 0.0000 -10506.9015 1417.7809 0.0000 0.0000 1763.9458 -7317.8388 302.6450 -9081.7846 -7417.1541 300.1867 96.5527 197.3611 30136.6305 -120.6104 -61.5833
TCL: Running FEP window   7: Lambda1 0.3    Lambda2 0.35   [dLambda 0.04999999999999999]
TCL: Setting parameter firsttimestep to 0
TCL: Setting parameter alchLambda to 0.3
Info: NONBONDED TABLE R-SQUARED SPACING: 0.0625
Info: NONBONDED TABLE SIZE: 705 POINTS
TCL: Setting parameter alchLambda2 to 0.35
Info: NONBONDED TABLE R-SQUARED SPACING: 0.0625
Info: NONBONDED TABLE SIZE: 705 POINTS
TCL: Running for 1500000 steps
ETITLE: TS BOND ANGLE DIHED IMPRP ELECT VDW BOUNDARY MISC KINETIC TOTAL TEMP POTENTIAL TOTALAVG TEMPAVG PRESSURE GPRESSURE VOLUME PRESSAVG GPRESSAVG
ENERGY: 0 2.7371 1.9388 2.6601 0.0000 -10506.9010 1418.2462 0.0000 0.0000 1763.0899 -7318.2290 302.4982 -9081.3189 -7318.2290 302.4982 121.4817 207.8380 30136.6305 121.4817 207.8380
ENERGY: 300000 2.0722 4.5937 2.2418 0.0000 -10629.1906 1476.7013 0.0000 0.0000 1745.9200 -7397.6616 299.5523 -9143.5816 -7401.2117 296.9749 127.9317 190.5891 30284.6742 64.2266 125.8601
ENERGY: 600000 1.6280 4.7179 2.4502 0.0000 -10589.0093 1412.1879 0.0000 0.0000 1738.6545 -7429.3709 298.3057 -9168.0254 -7407.1456 297.6770 -343.7661 -256.2801 30139.4327 50.8158 114.8342
ENERGY: 900000 3.0182 2.7886 3.0398 0.0000 -10679.7614 1444.8795 0.0000 0.0000 1737.0565 -7488.9789 298.0316 -9226.0353 -7420.6774 299.3769 -57.7354 -16.2840 30014.3414 152.5606 210.5103
ENERGY: 1200000 3.4868 1.7023 4.1643 0.0000 -10632.0947 1443.3556 0.0000 0.0000 1751.0666 -7428.3191 300.4353 -9179.3857 -7416.2154 300.2068 -24.6095 -10.1640 29932.4801 141.8213 200.4409
ENERGY: 1500000 3.5382 2.7634 3.3090 0.0000 -10588.5355 1444.8210 0.0000 0.0000 1726.9390 -7407.1649 296.2957 -9134.1039 -7407.9933 300.2067 230.4699 264.8226 29913.7207 153.3105 209.5325
TCL: Running FEP window   8: Lambda1 0.35   Lambda2 0.39999999999999997 [dLambda 0.04999999999999999]
TCL: Setting parameter firsttimestep to 0
TCL: Setting parameter alchLambda to 0.35
Info: NONBONDED TABLE R-SQUARED SPACING: 0.0625
Info: NONBONDED TABLE SIZE: 705 POINTS
TCL: Setting parameter alchLambda2 to 0.39999999999999997
Info: NONBONDED TABLE R-SQUARED SPACING: 0.0625
Info: NONBONDED TABLE SIZE: 705 POINTS
TCL: Running for 1500000 steps
ETITLE: TS BOND ANGLE DIHED IMPRP ELECT VDW BOUNDARY MISC KINETIC TOTAL TEMP POTENTIAL TOTALAVG TEMPAVG PRESSURE GPRESSURE VOLUME PRESSAVG GPRESSAVG
ENERGY: 0 3.5382 2.7634 3.3090 0.0000 -10588.5347 1445.2956 0.0000 0.0000 1726.0747 -7407.5538 296.1474 -9133.6285 -7407.5538 296.1474 189.6844 271.8687 29913.7207 189.6844 271.8687
ENERGY: 300000 2.6972 3.8724 2.2769 0.0000 -10732.4487 1503.3093 0.0000 0.0000 1735.3828 -7484.9101 297.7444 -9220.2929 -7413.5703 298.6725 404.1654 537.4669 29707.8722 68.6765 151.3608
ENERGY: 600000 3.0715 1.8081 1.7837 0.0000 -10507.4953 1436.6294 0.0000 0.0000 1742.3384 -7321.8643 298.9378 -9064.2027 -7404.1720 299.4361 84.2630 171.6133 30387.0328 -23.2887 60.4669
ENERGY: 900000 4.8104 2.7837 4.2864 0.0000 -10615.9574 1449.1559 0.0000 0.0000 1807.9251 -7346.9959 310.1907 -9154.9210 -7403.4222 299.8758 261.1523 309.5714 29885.3883 -154.2667 -76.7139
ENERGY: 1200000 2.8802 4.7498 2.8402 0.0000 -10641.1391 1484.1832 0.0000 0.0000 1741.9170 -7404.5686 298.8655 -9146.4856 -7404.3718 299.3843 301.8223 384.0913 30326.5906 -74.7639 -1.7289
ENERGY: 1500000 4.6151 3.7426 3.1514 0.0000 -10373.0917 1287.0018 0.0000 0.0000 1786.3501 -7288.2307 306.4890 -9074.5808 -7399.6916 299.5242 -867.9095 -800.0984 30225.9546 -155.4893 -88.3963
TCL: Running FEP window   9: Lambda1 0.39999999999999997 Lambda2 0.44999999999999996 [dLambda 0.04999999999999999]
TCL: Setting parameter firsttimestep to 0
TCL: Setting parameter alchLambda to 0.39999999999999997
Info: NONBONDED TABLE R-SQUARED SPACING: 0.0625
Info: NONBONDED TABLE SIZE: 705 POINTS
TCL: Setting parameter alchLambda2 to 0.44999999999999996
Info: NONBONDED TABLE R-SQUARED SPACING: 0.0625
Info: NONBONDED TABLE SIZE: 705 POINTS
TCL: Running for 1500000 steps
ETITLE: TS BOND ANGLE DIHED IMPRP ELECT VDW BOUNDARY MISC KINETIC TOTAL TEMP POTENTIAL TOTALAVG TEMPAVG PRESSURE GPRESSURE VOLUME PRESSAVG GPRESSAVG
ENERGY: 0 4.6151 3.7426 3.1514 0.0000 -10373.0917 1286.8188 0.0000 0.0000 1785.4510 -7289.3128 306.3348 -9074.7638 -7289.3128 306.3348 -885.8165 -795.7460 30225.9546 -885.8165 -795.7460
ENERGY: 300000 2.6800 3.7851 2.1734 0.0000 -10532.6341 1444.8020 0.0000 0.0000 1765.0806 -7314.1130 302.8397 -9079.1936 -7361.1124 302.4841 351.9127 451.3074 30039.3789 -118.6092 -40.7970
ENERGY: 600000 5.0664 3.8962 5.2137 0.0000 -10647.9189 1450.8315 0.0000 0.0000 1762.5556 -7420.3555 302.4065 -9182.9111 -7389.1096 300.1206 -336.7479 -214.4755 30279.0584 -196.3900 -112.3393
ENERGY: 900000 2.7454 5.0481 4.8768 0.0000 -10639.0421 1465.6261 0.0000 0.0000 1756.8588 -7403.8869 301.4291 -9160.7457 -7397.8843 299.0293 15.8010 29.5263 30349.0758 -181.2897 -106.9708
ENERGY: 1200000 1.6904 1.0856 2.2366 0.0000 -10486.3962 1394.0110 0.0000 0.0000 1756.8900 -7330.4827 301.4345 -9087.3727 -7390.2365 299.8239 28.8268 130.5329 30222.5371 -202.7311 -129.1885
ENERGY: 1500000 4.1377 2.4758 2.0137 0.0000 -10612.2559 1449.5447 0.0000 0.0000 1735.2235 -7418.8605 297.7171 -9154.0840 -7387.0593 299.6309 -22.5957 -24.3678 30412.7446 -210.6890 -142.1916
TCL: Running FEP window  10: Lambda1 0.44999999999999996 Lambda2 0.49999999999999994 [dLambda 0.04999999999999999]
TCL: Setting parameter firsttimestep to 0
TCL: Setting parameter alchLambda to 0.44999999999999996
Info: NONBONDED TABLE R-SQUARED SPACING: 0.0625
Info: NONBONDED TABLE SIZE: 705 POINTS
TCL: Setting parameter alchLambda2 to 0.49999999999999994
Info: NONBONDED TABLE R-SQUARED SPACING: 0.0625
Info: NONBONDED TABLE SIZE: 705 POINTS
TCL: Running for 1500000 steps
ETITLE: TS BOND ANGLE DIHED IMPRP ELECT VDW BOUNDARY MISC KINETIC TOTAL TEMP POTENTIAL TOTALAVG TEMPAVG PRESSURE GPRESSURE VOLUME PRESSAVG GPRESSAVG
ENERGY: 0 4.1377 2.4758 2.0138 0.0000 -10612.2552 1449.9542 0.0000 0.0000 1734.3880 -7419.2859 297.5737 -9153.6738 -7419.2859 297.5737 -99.6364 -18.5703 30412.7446 -99.6364 -18.5703
ENERGY: 300000 1.8828 2.6221 3.0911 0.0000 -10531.9040 1381.6115 0.0000 0.0000 1756.0790 -7386.6174 301.2953 -9142.6964 -7397.6773 302.4734 -477.9856 -411.6160 30284.7555 -291.2645 -210.7177
ENERGY: 600000 4.0646 1.7935 7.1433 0.0000 -10539.4811 1391.5876 0.0000 0.0000 1742.3271 -7392.5650 298.9359 -9134.8922 -7399.5668 301.1135 -257.4823 -192.3321 30099.0359 -169.6790 -98.2344
ENERGY: 900000 1.9118 4.2230 1.4727 0.0000 -10545.5431 1417.7692 0.0000 0.0000 1727.2749 -7392.8915 296.3533 -9120.1663 -7410.6714 299.8270 66.2112 76.6233 29853.9457 -138.3132 -76.0589
ENERGY: 1200000 5.6739 6.3209 2.4753 0.0000 -10531.6496 1400.1759 0.0000 0.0000 1707.5872 -7409.4164 292.9754 -9117.0036 -7417.2928 298.4946 -435.0199 -304.2977 30302.5297 -140.1973 -62.2737
ENERGY: 1500000 0.8796 2.8865 2.3380 0.0000 -10584.6903 1402.5203 0.0000 0.0000 1745.4242 -7430.6418 299.4672 -9176.0660 -7414.1770 299.1783 -93.2701 -81.4711 29985.7865 -131.5611 -60.3362
TCL: Running FEP window  11: Lambda1 0.49999999999999994 Lambda2 0.5499999999999999 [dLambda 0.04999999999999999]
TCL: Setting parameter firsttimestep to 0
TCL: Setting parameter alchLambda to 0.49999999999999994
Info: NONBONDED TABLE R-SQUARED SPACING: 0.0625
Info: NONBONDED TABLE SIZE: 705 POINTS
TCL: Setting parameter alchLambda2 to 0.5499999999999999
Info: NONBONDED TABLE R-SQUARED SPACING: 0.0625
Info: NONBONDED TABLE SIZE: 705 POINTS
TCL: Running for 1500000 steps
ETITLE: TS BOND ANGLE DIHED IMPRP ELECT VDW BOUNDARY MISC KINETIC TOTAL TEMP POTENTIAL TOTALAVG TEMPAVG PRESSURE GPRESSURE VOLUME PRESSAVG GPRESSAVG
ENERGY: 0 0.8796 2.8865 2.3380 0.0000 -10584.6916 1402.4083 0.0000 0.0000 1744.5247 -7431.6546 299.3129 -9176.1794 -7431.6546 299.3129 -171.5842 -74.7763 29985.7865 -171.5842 -74.7763
ENERGY: 300000 1.8824 4.1253 3.4776 0.0000 -10639.1235 1443.6878 0.0000 0.0000 1776.0223 -7409.9280 304.7170 -9185.9503 -7417.3869 301.8198 134.5115 272.2034 29807.5769 -347.3890 -245.5962
ENERGY: 600000 3.0289 3.3753 2.3451 0.0000 -10650.8702 1438.0239 0.0000 0.0000 1739.0519 -7465.0452 298.3739 -9204.0971 -7404.2027 303.4486 -17.1000 16.4110 30088.3496 -254.4647 -165.0869
ENERGY: 900000 2.2811 3.6111 2.2598 0.0000 -10580.0002 1452.8673 0.0000 0.0000 1723.1399 -7395.8410 295.6439 -9118.9809 -7397.5331 301.9024 133.6401 196.2097 30314.5743 -221.4111 -141.2927
ENERGY: 1200000 3.7246 6.1486 2.4119 0.0000 -10585.6639 1454.7641 0.0000 0.0000 1759.9929 -7358.6218 301.9668 -9118.6148 -7390.9464 302.6565 145.9315 215.8098 30435.3070 -180.0541 -97.4085
ENERGY: 1500000 4.0479 5.4238 2.7085 0.0000 -10653.6141 1441.5097 0.0000 0.0000 1745.9501 -7453.9741 299.5575 -9199.9242 -7400.1708 301.7018 113.2998 120.2794 29755.5826 -200.3004 -130.7904
TCL: Running FEP window  12: Lambda1 0.5499999999999999 Lambda2 0.6    [dLambda 0.050000000000000044]
TCL: Setting parameter firsttimestep to 0
TCL: Setting parameter alchLambda to 0.5499999999999999
Info: NONBONDED TABLE R-SQUARED SPACING: 0.0625
Info: NONBONDED TABLE SIZE: 705 POINTS
TCL: Setting parameter alchLambda2 to 0.6
Info: NONBONDED TABLE R-SQUARED SPACING: 0.0625
Info: NONBONDED TABLE SIZE: 705 POINTS
TCL: Running for 1500000 steps
ETITLE: TS BOND ANGLE DIHED IMPRP ELECT VDW BOUNDARY MISC KINETIC TOTAL TEMP POTENTIAL TOTALAVG TEMPAVG PRESSURE GPRESSURE VOLUME PRESSAVG GPRESSAVG
ENERGY: 0 4.0479 5.4238 2.7085 0.0000 -10653.7959 1441.6313 0.0000 0.0000 1745.0830 -7454.9014 299.4087 -9199.9844 -7454.9014 299.4087 47.5526 127.8737 29755.5826 47.5526 127.8737
ENERGY: 300000 1.4183 7.8516 2.3353 0.0000 -10519.3799 1425.5984 0.0000 0.0000 1745.5698 -7336.6065 299.4922 -9082.1763 -7365.6344 301.4539 233.8543 287.1818 30248.8193 -133.9484 -54.7815
ENERGY: 600000 1.3940 7.4613 2.1252 0.0000 -10593.8681 1426.6073 0.0000 0.0000 1753.5961 -7402.6841 300.8693 -9156.2802 -7376.2078 299.8997 -334.5848 -263.2785 30764.5886 -182.5125 -109.6854
ENERGY: 900000 4.2692 4.2834 3.4108 0.0000 -10509.8265 1398.9631 0.0000 0.0000 1701.2014 -7397.6987 291.8798 -9098.9001 -7387.9743 299.5235 -538.9641 -464.7474 30773.0736 -196.7819 -131.0021
ENERGY: 1200000 1.9131 5.6283 2.8958 0.0000 -10596.4742 1482.5362 0.0000 0.0000 1745.7511 -7357.7496 299.5233 -9103.5007 -7383.1543 300.2940 613.0984 673.0777 29928.2953 -146.3065 -88.3234
ENERGY: 1500000 1.8476 3.3621 2.4767 0.0000 -10448.8387 1327.6907 0.0000 0.0000 1727.4135 -7386.0481 296.3771 -9113.4616 -7389.9824 299.5720 -786.0804 -756.7597 30453.3832 -81.7387 -19.2092
TCL: Running FEP window  13: Lambda1 0.6    Lambda2 0.65   [dLambda 0.050000000000000044]
TCL: Setting parameter firsttimestep to 0
TCL: Setting parameter alchLambda to 0.6
Info: NONBONDED TABLE R-SQUARED SPACING: 0.0625
Info: NONBONDED TABLE SIZE: 705 POINTS
TCL: Setting parameter alchLambda2 to 0.65
Info: NONBONDED TABLE R-SQUARED SPACING: 0.0625
Info: NONBONDED TABLE SIZE: 705 POINTS
TCL: Running for 1500000 steps
ETITLE: TS BOND ANGLE DIHED IMPRP ELECT VDW BOUNDARY MISC KINETIC TOTAL TEMP POTENTIAL TOTALAVG TEMPAVG PRESSURE GPRESSURE VOLUME PRESSAVG GPRESSAVG
ENERGY: 0 1.8476 3.3621 2.4767 0.0000 -10449.0456 1327.1757 0.0000 0.0000 1726.5258 -7387.6576 296.2248 -9114.1834 -7387.6576 296.2248 -830.7556 -753.5933 30453.3832 -830.7556 -753.5933
ENERGY: 300000 2.3467 6.6461 4.6315 0.0000 -10551.8698 1418.1839 0.0000 0.0000 1777.8936 -7342.1679 305.0381 -9120.0615 -7393.5226 300.8372 -6.9174 88.1066 30409.2027 -428.8143 -366.5272
ENERGY: 600000 3.6367 4.6953 6.3194 0.0000 -10572.8265 1375.5295 0.0000 0.0000 1756.7891 -7425.8565 301.4172 -9182.6456 -7409.9385 300.6786 -582.6010 -548.2470 30083.6539 -410.3564 -369.4467
ENERGY: 900000 1.8043 4.0676 3.2203 0.0000 -10599.2588 1394.1835 0.0000 0.0000 1772.1619 -7423.8212 304.0547 -9195.9831 -7416.6829 300.0647 -548.1505 -492.2902 30388.1850 -369.2764 -324.2891
ENERGY: 1200000 3.6636 2.4193 3.8181 0.0000 -10635.8006 1396.2150 0.0000 0.0000 1749.8270 -7479.8575 300.2226 -9229.6845 -7414.9910 300.8668 -598.8093 -501.7003 30288.9161 -194.2738 -141.8058
ENERGY: 1500000 2.9243 5.0913 1.4921 0.0000 -10621.7575 1493.5559 0.0000 0.0000 1762.8822 -7355.8117 302.4626 -9118.6939 -7411.0849 300.4520 649.3973 748.4994 30235.5042 -107.1089 -51.5502
TCL: Running FEP window  14: Lambda1 0.65   Lambda2 0.7000000000000001 [dLambda 0.050000000000000044]
TCL: Setting parameter firsttimestep to 0
TCL: Setting parameter alchLambda to 0.65
Info: NONBONDED TABLE R-SQUARED SPACING: 0.0625
Info: NONBONDED TABLE SIZE: 705 POINTS
TCL: Setting parameter alchLambda2 to 0.7000000000000001
Info: NONBONDED TABLE R-SQUARED SPACING: 0.0625
Info: NONBONDED TABLE SIZE: 705 POINTS
TCL: Running for 1500000 steps
ETITLE: TS BOND ANGLE DIHED IMPRP ELECT VDW BOUNDARY MISC KINETIC TOTAL TEMP POTENTIAL TOTALAVG TEMPAVG PRESSURE GPRESSURE VOLUME PRESSAVG GPRESSAVG
ENERGY: 0 2.9243 5.0913 1.4921 0.0000 -10622.5304 1493.8334 0.0000 0.0000 1762.0192 -7357.1701 302.3145 -9119.1893 -7357.1701 302.3145 673.2350 757.0566 30235.5042 673.2350 757.0566
ENERGY: 300000 3.4166 3.1775 2.2427 0.0000 -10513.5721 1378.8992 0.0000 0.0000 1738.2230 -7387.6130 298.2317 -9125.8360 -7365.5872 300.3473 -423.4907 -384.0022 30516.7744 216.7823 263.5044
ENERGY: 600000 4.2819 2.2352 2.5413 0.0000 -10558.5881 1444.6666 0.0000 0.0000 1664.5998 -7440.2633 285.6000 -9104.8631 -7384.7113 298.3768 747.5298 837.9809 29324.7931 258.4568 312.3191
ENERGY: 900000 2.8542 1.7022 2.7291 0.0000 -10686.3495 1520.1315 0.0000 0.0000 1731.1116 -7427.8210 297.0116 -9158.9326 -7381.2365 299.6334 807.4338 873.8007 29816.7842 310.6910 370.8135
ENERGY: 1200000 2.1321 5.3444 4.8568 0.0000 -10605.3394 1455.4099 0.0000 0.0000 1716.7723 -7420.8239 294.5513 -9137.5962 -7385.7424 299.4668 390.0965 427.5156 30054.5477 259.2389 317.0729
ENERGY: 1500000 2.1555 1.5282 2.7625 0.0000 -10622.2504 1406.1670 0.0000 0.0000 1725.9911 -7483.6461 296.1331 -9209.6372 -7395.8648 298.6702 -136.4736 -81.5707 29670.1891 179.6324 239.2904
TCL: Running FEP window  15: Lambda1 0.7000000000000001 Lambda2 0.7500000000000001 [dLambda 0.050000000000000044]
TCL: Setting parameter firsttimestep to 0
TCL: Setting parameter alchLambda to 0.7000000000000001
Info: NONBONDED TABLE R-SQUARED SPACING: 0.0625
Info: NONBONDED TABLE SIZE: 705 POINTS
TCL: Setting parameter alchLambda2 to 0.7500000000000001
Info: NONBONDED TABLE R-SQUARED SPACING: 0.0625
Info: NONBONDED TABLE SIZE: 705 POINTS
TCL: Running for 1500000 steps
ETITLE: TS BOND ANGLE DIHED IMPRP ELECT VDW BOUNDARY MISC KINETIC TOTAL TEMP POTENTIAL TOTALAVG TEMPAVG PRESSURE GPRESSURE VOLUME PRESSAVG GPRESSAVG
ENERGY: 0 2.1555 1.5282 2.7625 0.0000 -10622.2371 1406.3678 0.0000 0.0000 1725.0505 -7484.3726 295.9717 -9209.4231 -7484.3726 295.9717 -147.9281 -70.5582 29670.1891 -147.9281 -70.5582
ENERGY: 300000 2.3693 5.7674 2.9560 0.0000 -10537.9617 1393.2172 0.0000 0.0000 1753.7232 -7379.9284 300.8911 -9133.6516 -7413.3320 296.1993 -284.7980 -266.4573 30177.1778 -256.6472 -223.5092
ENERGY: 600000 3.4787 5.3871 2.9972 0.0000 -10612.0801 1508.9684 0.0000 0.0000 1812.3549 -7278.8938 310.9507 -9091.2487 -7387.5132 299.3917 837.9042 923.6347 30023.7196 41.6065 89.0545
ENERGY: 900000 1.8344 3.2568 2.0726 0.0000 -10592.7802 1420.3363 0.0000 0.0000 1734.4003 -7430.8798 297.5758 -9165.2801 -7399.7681 297.7445 -24.9571 49.5045 29914.7692 -8.9709 57.3331
ENERGY: 1200000 4.0352 5.2188 2.7013 0.0000 -10558.3286 1444.6429 0.0000 0.0000 1726.8537 -7374.8768 296.2810 -9101.7305 -7388.8247 299.5196 337.1046 421.7152 30153.7763 32.8079 95.1985
ENERGY: 1500000 3.9823 4.0146 1.9581 0.0000 -10438.4814 1321.9218 0.0000 0.0000 1729.8413 -7376.7633 296.7936 -9106.6046 -7382.3068 299.6316 -786.4509 -686.7762 30245.2859 -73.4772 -8.3081
TCL: Running FEP window  16: Lambda1 0.7500000000000001 Lambda2 0.8000000000000002 [dLambda 0.050000000000000044]
TCL: Setting parameter firsttimestep to 0
TCL: Setting parameter alchLambda to 0.7500000000000001
Info: NONBONDED TABLE R-SQUARED SPACING: 0.0625
Info: NONBONDED TABLE SIZE: 705 POINTS
TCL: Setting parameter alchLambda2 to 0.8000000000000002
Info: NONBONDED TABLE R-SQUARED SPACING: 0.0625
Info: NONBONDED TABLE SIZE: 705 POINTS
TCL: Running for 1500000 steps
ETITLE: TS BOND ANGLE DIHED IMPRP ELECT VDW BOUNDARY MISC KINETIC TOTAL TEMP POTENTIAL TOTALAVG TEMPAVG PRESSURE GPRESSURE VOLUME PRESSAVG GPRESSAVG
ENERGY: 0 3.9823 4.0146 1.9581 0.0000 -10438.7432 1322.2468 0.0000 0.0000 1728.9707 -7377.5708 296.6443 -9106.5415 -7377.5708 296.6443 -769.7722 -676.0221 30245.2859 -769.7722 -676.0221
ENERGY: 300000 2.1555 4.6317 0.8819 0.0000 -10478.1708 1358.9964 0.0000 0.0000 1760.4574 -7351.0479 302.0465 -9111.5053 -7371.9684 300.5630 -308.8624 -193.3218 30029.6999 -333.5240 -267.3142
ENERGY: 600000 1.7262 2.4849 1.6652 0.0000 -10478.4350 1416.8675 0.0000 0.0000 1777.3551 -7278.3361 304.9457 -9055.6912 -7341.0358 302.4385 -29.4676 18.0844 30806.2137 -375.9907 -304.1738
ENERGY: 900000 3.8632 5.7342 6.1065 0.0000 -10499.8579 1348.1297 0.0000 0.0000 1726.9239 -7409.1004 296.2931 -9136.0243 -7368.9648 300.4442 -441.2587 -401.6585 30229.5429 -345.6373 -280.8404
ENERGY: 1200000 2.6621 5.1203 1.9140 0.0000 -10787.3714 1548.2832 0.0000 0.0000 1730.3694 -7499.0225 296.8842 -9229.3919 -7382.7952 300.0981 1072.2635 1168.7717 29628.8677 -159.1515 -99.8441
ENERGY: 1500000 2.0332 1.0189 2.6170 0.0000 -10672.3983 1478.3576 0.0000 0.0000 1755.9507 -7432.4210 301.2733 -9188.3717 -7387.9864 299.7202 299.5181 308.9309 30316.2971 -107.5307 -49.5597
TCL: Running FEP window  17: Lambda1 0.8000000000000002 Lambda2 0.8500000000000002 [dLambda 0.050000000000000044]
TCL: Setting parameter firsttimestep to 0
TCL: Setting parameter alchLambda to 0.8000000000000002
Info: NONBONDED TABLE R-SQUARED SPACING: 0.0625
Info: NONBONDED TABLE SIZE: 705 POINTS
TCL: Setting parameter alchLambda2 to 0.8500000000000002
Info: NONBONDED TABLE R-SQUARED SPACING: 0.0625
Info: NONBONDED TABLE SIZE: 705 POINTS
TCL: Running for 1500000 steps
ETITLE: TS BOND ANGLE DIHED IMPRP ELECT VDW BOUNDARY MISC KINETIC TOTAL TEMP POTENTIAL TOTALAVG TEMPAVG PRESSURE GPRESSURE VOLUME PRESSAVG GPRESSAVG
ENERGY: 0 2.0332 1.0189 2.6170 0.0000 -10672.8913 1478.4905 0.0000 0.0000 1755.1047 -7433.6271 301.1282 -9188.7318 -7433.6271 301.1282 245.7631 318.7624 30316.2971 245.7631 318.7624
ENERGY: 300000 1.3787 3.5862 5.0607 0.0000 -10486.2561 1291.4201 0.0000 0.0000 1739.0627 -7445.7478 298.3758 -9184.8105 -7428.5559 297.9564 -1192.3088 -1171.6099 30576.5948 -392.3689 -355.7114
ENERGY: 600000 3.6985 3.5167 2.1125 0.0000 -10465.9823 1395.7290 0.0000 0.0000 1771.5150 -7289.4106 303.9437 -9060.9256 -7405.0585 299.1745 -128.0009 -76.3374 30364.1680 -179.3053 -130.2911
ENERGY: 900000 0.8336 4.6888 4.0017 0.0000 -10720.5683 1510.7028 0.0000 0.0000 1764.0266 -7436.3149 302.6589 -9200.3415 -7417.7625 299.5092 354.4169 341.9782 30610.2167 -143.6655 -94.4757
ENERGY: 1200000 3.4056 4.0336 2.9104 0.0000 -10551.6591 1440.7633 0.0000 0.0000 1700.6762 -7399.8700 291.7897 -9100.5462 -7414.7847 299.9064 336.4431 411.0221 29882.8312 -66.8757 -17.1654
ENERGY: 1500000 2.3740 7.6772 8.3471 0.0000 -10654.1289 1469.5725 0.0000 0.0000 1706.6208 -7459.5374 292.8096 -9166.1581 -7408.3424 299.8182 428.1701 557.6711 29762.8926 -53.3368 3.6253
TCL: Running FEP window  18: Lambda1 0.8500000000000002 Lambda2 0.9000000000000002 [dLambda 0.050000000000000044]
TCL: Setting parameter firsttimestep to 0
TCL: Setting parameter alchLambda to 0.8500000000000002
Info: NONBONDED TABLE R-SQUARED SPACING: 0.0625
Info: NONBONDED TABLE SIZE: 705 POINTS
TCL: Setting parameter alchLambda2 to 0.9000000000000002
Info: NONBONDED TABLE R-SQUARED SPACING: 0.0625
Info: NONBONDED TABLE SIZE: 705 POINTS
TCL: Running for 1500000 steps
ETITLE: TS BOND ANGLE DIHED IMPRP ELECT VDW BOUNDARY MISC KINETIC TOTAL TEMP POTENTIAL TOTALAVG TEMPAVG PRESSURE GPRESSURE VOLUME PRESSAVG GPRESSAVG
ENERGY: 0 2.3740 7.6772 8.3471 0.0000 -10654.5582 1470.6591 0.0000 0.0000 1705.7666 -7459.7342 292.6631 -9165.5008 -7459.7342 292.6631 492.7811 584.6388 29762.8926 492.7811 584.6388
ENERGY: 300000 2.2780 4.4423 2.6271 0.0000 -10637.6626 1450.9092 0.0000 0.0000 1786.0730 -7391.3330 306.4415 -9177.4059 -7430.0308 300.6757 18.9305 58.4512 30283.4611 219.9934 276.6816
ENERGY: 600000 3.9904 4.7680 3.6863 0.0000 -10745.2113 1485.8126 0.0000 0.0000 1732.3139 -7514.6400 297.2179 -9246.9539 -7433.6200 300.9024 451.7915 481.5346 29701.5900 224.5566 277.1551
ENERGY: 900000 4.0207 3.7042 3.2636 0.0000 -10760.0144 1604.2276 0.0000 0.0000 1766.4710 -7378.3273 303.0783 -9144.7983 -7426.8834 301.8277 1482.1943 1587.3281 29756.5837 171.0977 243.0471
ENERGY: 1200000 4.7879 4.0134 3.2913 0.0000 -10629.0542 1457.1381 0.0000 0.0000 1726.7638 -7433.0597 296.2656 -9159.8235 -7424.9158 301.8742 30.5615 121.0935 30225.5549 45.0571 125.1856
ENERGY: 1500000 1.2060 5.6241 2.2189 0.0000 -10556.9437 1363.4854 0.0000 0.0000 1797.4220 -7386.9873 308.3886 -9184.4093 -7418.0828 302.6387 -588.2819 -509.5821 30066.8203 4.6670 85.4394
TCL: Running FEP window  19: Lambda1 0.9000000000000002 Lambda2 0.9500000000000003 [dLambda 0.050000000000000044]
TCL: Setting parameter firsttimestep to 0
TCL: Setting parameter alchLambda to 0.9000000000000002
Info: NONBONDED TABLE R-SQUARED SPACING: 0.0625
Info: NONBONDED TABLE SIZE: 705 POINTS
TCL: Setting parameter alchLambda2 to 0.9500000000000003
Info: NONBONDED TABLE R-SQUARED SPACING: 0.0625
Info: NONBONDED TABLE SIZE: 705 POINTS
TCL: Running for 1500000 steps
ETITLE: TS BOND ANGLE DIHED IMPRP ELECT VDW BOUNDARY MISC KINETIC TOTAL TEMP POTENTIAL TOTALAVG TEMPAVG PRESSURE GPRESSURE VOLUME PRESSAVG GPRESSAVG
ENERGY: 0 1.2060 5.6241 2.2189 0.0000 -10557.2227 1363.2505 0.0000 0.0000 1796.5671 -7388.3561 308.2420 -9184.9233 -7388.3561 308.2420 -589.4554 -499.4978 30066.8203 -589.4554 -499.4978
ENERGY: 300000 2.8972 6.0574 2.4081 0.0000 -10459.6962 1343.1249 0.0000 0.0000 1789.2717 -7315.9369 306.9903 -9105.2086 -7371.0497 303.0905 -836.9710 -718.3486 30754.3343 -378.3602 -288.4547
ENERGY: 600000 3.1807 4.4859 3.4068 0.0000 -10657.6035 1456.4455 0.0000 0.0000 1774.0790 -7416.0055 304.3836 -9190.0845 -7393.2401 301.2532 -80.3244 -15.1406 30328.1957 -173.9645 -82.9374
ENERGY: 900000 0.8162 3.7228 3.0466 0.0000 -10622.1198 1435.9307 0.0000 0.0000 1771.4316 -7407.1719 303.9294 -9178.6035 -7393.4591 301.2950 -59.6655 45.9085 30372.0438 -186.0301 -102.0461
ENERGY: 1200000 3.9154 4.2606 0.6480 0.0000 -10639.6834 1449.5357 0.0000 0.0000 1733.8887 -7447.4349 297.4881 -9181.3237 -7399.4052 301.9573 -227.9075 -109.6085 30672.2680 -217.8443 -133.6734
ENERGY: 1500000 1.3526 2.1506 1.5565 0.0000 -10683.0845 1460.6960 0.0000 0.0000 1749.3485 -7467.9803 300.1405 -9217.3288 -7413.4425 300.8990 363.5188 472.1343 29746.4349 -122.1910 -47.4926
TCL: Running FEP window  20: Lambda1 0.9500000000000003 Lambda2 1.0    [dLambda 0.04999999999999971]
TCL: Setting parameter firsttimestep to 0
TCL: Setting parameter alchLambda to 0.9500000000000003
Info: NONBONDED TABLE R-SQUARED SPACING: 0.0625
Info: NONBONDED TABLE SIZE: 705 POINTS
TCL: Setting parameter alchLambda2 to 1.0
Info: NONBONDED TABLE R-SQUARED SPACING: 0.0625
Info: NONBONDED TABLE SIZE: 705 POINTS
TCL: Running for 1500000 steps
ETITLE: TS BOND ANGLE DIHED IMPRP ELECT VDW BOUNDARY MISC KINETIC TOTAL TEMP POTENTIAL TOTALAVG TEMPAVG PRESSURE GPRESSURE VOLUME PRESSAVG GPRESSAVG
ENERGY: 0 1.3526 2.1506 1.5565 0.0000 -10684.0220 1461.3589 0.0000 0.0000 1748.4818 -7469.1217 299.9918 -9217.6034 -7469.1217 299.9918 397.3595 490.0215 29746.4349 397.3595 490.0215
ENERGY: 300000 2.0743 7.7472 2.5410 0.0000 -10552.5871 1423.7264 0.0000 0.0000 1732.2403 -7384.2580 297.2052 -9116.4983 -7414.2845 297.5981 -424.0617 -335.7183 30886.8004 239.7783 296.0823
ENERGY: 600000 2.4106 2.8838 3.8863 0.0000 -10562.4282 1404.9765 0.0000 0.0000 1767.4606 -7380.8105 303.2481 -9148.2711 -7401.3951 299.9241 -104.7561 -16.8835 30022.3491 62.5406 126.5363
ENERGY: 900000 1.7601 2.3316 1.7303 0.0000 -10735.2907 1589.5877 0.0000 0.0000 1749.3596 -7390.5215 300.1425 -9139.8811 -7400.5704 300.3347 1566.7434 1563.3937 29878.4871 225.0066 277.3249
ENERGY: 1200000 2.8331 4.7189 1.9496 0.0000 -10660.1654 1468.9316 0.0000 0.0000 1707.3870 -7474.3453 292.9411 -9181.7323 -7404.6721 300.0647 240.0607 292.6754 30175.1110 142.8254 204.9995
ENERGY: 1500000 2.8026 3.5840 1.8974 0.0000 -10625.9878 1447.5424 0.0000 0.0000 1777.8303 -7392.3310 305.0272 -9170.1613 -7399.3348 300.1128 242.2457 300.9856 30070.0572 168.5253 229.3220
TCL: Exiting due to exit command.
