Info: SIMULATION PARAMETERS:
Info: TIMESTEP               1
Info: NUMBER OF STEPS        0
Info: STEPS PER CYCLE        10
Info: PERIODIC CELL BASIS 1  30 0 0
Info: PERIODIC CELL BASIS 2  0 30 0
Info: PERIODIC CELL BASIS 3  0 0 30
Info: PERIODIC CELL CENTER   0 0 0
Info: WRAPPING ALL CLUSTERS AROUND PERIODIC BOUNDARIES ON OUTPUT.
Info: FIRST LDB TIMESTEP     50
Info: LAST LDB TIMESTEP     -1
Info: HOM BACKGROUND SCALING 1
Info: MIN ATOMS PER PATCH    40
Info: EMPTY PATCH LOAD       40 ATOMS
Info: INITIAL TEMPERATURE    298
Info: CENTER OF MASS MOVING INITIALLY? NO
Info: DIELECTRIC             1
Info: EXCLUDE                SCALED ONE-FOUR
Info: 1-4 ELECTROSTATICS SCALED BY 1
Info: MODIFIED 1-4 VDW PARAMETERS WILL BE USED
Info: DCD FILENAME           output.dcd
Info: DCD FREQUENCY          100
Info: DCD FIRST STEP         100
Info: DCD FILE WILL CONTAIN UNIT CELL DATA
Info: NO EXTENDED SYSTEM TRAJECTORY OUTPUT
Info: NO VELOCITY DCD OUTPUT
Info: NO FORCE DCD OUTPUT
Info: OUTPUT FILENAME        output
Info: BINARY OUTPUT FILES WILL BE USED
Info: NO RESTART FILE
Info: SWITCHING ACTIVE
Info: SWITCHING ON           10
Info: SWITCHING OFF          12
Info: PAIRLIST DISTANCE      14
Info: PAIRLIST SHRINK RATE   0.01
Info: PAIRLIST GROW RATE     0.01
Info: PAIRLIST TRIGGER       0.3
Info: PAIRLISTS PER CYCLE    2
Info: PAIRLISTS ENABLED
Info: MARGIN                 0.495
Info: HYDROGEN GROUP CUTOFF  2.5
Info: PATCH DIMENSION        16.995
Info: ENERGY OUTPUT STEPS    100
Info: ENERGY EVALUATION STEPS    100
Info: OUTPUT ENERGY PRECISION 4
Info: CROSSTERM ENERGY INCLUDED IN DIHEDRAL
Info: TIMING OUTPUT STEPS    100
Info: LANGEVIN DYNAMICS ACTIVE
Info: LANGEVIN TEMPERATURE   298
Info: LANGEVIN USING BBK INTEGRATOR
Info: LANGEVIN DAMPING COEFFICIENT IS 1 INVERSE PS
Info: LANGEVIN DYNAMICS NOT APPLIED TO HYDROGENS
Info: LANGEVIN PISTON PRESSURE CONTROL ACTIVE
Info:        TARGET PRESSURE IS 1.01325 BAR
Info:     OSCILLATION PERIOD IS 100 FS
Info:             DECAY TIME IS 50 FS
Info:     PISTON TEMPERATURE IS 298 K
Info:       PRESSURE CONTROL IS GROUP-BASED
Info:    INITIAL STRAIN RATE IS 0 0 0
Info:       CELL FLUCTUATION IS ISOTROPIC
Info: MULTILEVEL SUMMATION METHOD (MSM) FOR ELECTROSTATICS ACTIVE
Info: MSM WITH C1 CUBIC INTERPOLATION AND C2 TAYLOR SPLITTING
Info: FULL ELECTROSTATIC EVALUATION FREQUENCY      1
Info: USING VERLET I (r-RESPA) MTS SCHEME.
Info: C1 SPLITTING OF LONG RANGE ELECTROSTATICS
Info: PLACING ATOMS IN PATCHES BY HYDROGEN GROUPS
Info: RIGID BONDS TO HYDROGEN : ALL
Info:         ERROR TOLERANCE : 1e-08
Info:          MAX ITERATIONS : 100
Info: RIGID WATER USING SETTLE ALGORITHM
Info: RANDOM NUMBER SEED     1740294204
Info: USE HYDROGEN BONDS?    NO
Info: COORDINATE PDB         ionized.pdb
Info: STRUCTURE FILE         ionized.psf
Info: PARAMETER file: CHARMM format!
Info: PARAMETERS             par_all27_prot_lipid.inp
Info: USING ARITHMETIC MEAN TO COMBINE L-J SIGMA PARAMETERS
Info: SUMMARY OF PARAMETERS:
Info: 180 BONDS
Info: 447 ANGLES
Info: 566 DIHEDRAL
Info: 46 IMPROPER
Info: 6 CROSSTERM
Info: 119 VDW
Info: 0 VDW_PAIRS
Info: 0 NBTHOLE_PAIRS
Info: STRUCTURE SUMMARY:
Info: 2478 ATOMS
Info: 1652 BONDS
Info: 826 ANGLES
Info: 0 DIHEDRALS
Info: 0 IMPROPERS
Info: 0 CROSSTERMS
Info: 0 EXCLUSIONS
Info: 2478 RIGID BONDS
Info: 4956 DEGREES OF FREEDOM
Info: 826 HYDROGEN GROUPS
Info: 3 ATOMS IN LARGEST HYDROGEN GROUP
Info: 826 MIGRATION GROUPS
Info: 3 ATOMS IN LARGEST MIGRATION GROUP
Info: TOTAL MASS = 14880.7 amu
Info: TOTAL CHARGE = 0 e
Info: MASS DENSITY = 0.915207 g/cm^3
Info: ATOM DENSITY = 0.0917778 atoms/A^3
Info: ADDED 2478 IMPLICIT EXCLUSIONS
Info: NONBONDED TABLE R-SQUARED SPACING: 0.0625
Info: NONBONDED TABLE SIZE: 769 POINTS
Info: REMOVING COM VELOCITY 0.131563 -0.0917579 0.0684603
Info: MSM using C1 cubic interpolation
Info: MSM using C2 Taylor splitting function
Info: MSM block size decomposition along X is 8 grid points
Info: MSM block size decomposition along Y is 8 grid points
Info: MSM block size decomposition along Z is 8 grid points
Info: MSM grid spacing along X is 2.5 A
Info: MSM grid spacing along Y is 2.5 A
Info: MSM grid spacing along Z is 2.5 A
Info: MSM using 3 levels
Info:     level 0:  [0..11] x [0..11] x [0..11]
Info:     level 1:  [0..5] x [0..5] x [0..5]
Info:     level 2:  [0..2] x [0..2] x [0..2]
Info: MSM finished calculating stencils
Info: MSM finished creating map for grid levels
Info: MSM finished creating map for patches
Info: MSM has 9 interpolation / anterpolation objects (one per patch)
Info: MSM grid level 0 decomposed into 8 blocks ( 2 x 2 x 2 )
Info: MSM grid level 1 decomposed into 1 block ( 1 x 1 x 1 )
Info: MSM grid level 2 decomposed into 1 block ( 1 x 1 x 1 )
Info: MSM grid cutoff calculation decomposed into 783 work objects
TCL: Minimizing for 1000 steps
ETITLE: TS BOND ANGLE DIHED IMPRP ELECT VDW BOUNDARY MISC KINETIC TOTAL TEMP POTENTIAL TOTAL3 TEMPAVG PRESSURE GPRESSURE VOLUME PRESSAVG GPRESSAVG
ENERGY: 0 0.0000 0.0000 0.0000 0.0000 -7442.5560 6358.5112 0.0000 0.0000 0.0000 -1084.0447 0.0000 -1084.0447 -1084.0447 0.0000 75224.8790 46167.8622 27000.0000 75224.8790 46167.8622
ENERGY: 200 0.0000 0.0000 0.0000 0.0000 -10584.9379 1093.9387 0.0000 0.0000 0.0000 -9490.9991 0.0000 -9490.9991 -9490.9991 0.0000 18749.8528 18693.5984 27000.0000 18749.8528 18693.5984
ENERGY: 400 0.0000 0.0000 0.0000 0.0000 -10970.0389 1262.5275 0.0000 0.0000 0.0000 -9707.5114 0.0000 -9707.5114 -9707.5114 0.0000 20689.1143 20611.4764 27000.0000 20689.1143 20611.4764
ENERGY: 600 0.0000 0.0000 0.0000 0.0000 -11099.5488 1297.9890 0.0000 0.0000 0.0000 -9801.5598 0.0000 -9801.5598 -9801.5598 0.0000 21121.9000 21037.7195 27000.0000 21121.9000 21037.7195
ENERGY: 800 0.0000 0.0000 0.0000 0.0000 -11183.3810 1322.0057 0.0000 0.0000 0.0000 -9861.3752 0.0000 -9861.3752 -9861.3752 0.0000 21394.6688 21309.8070 27000.0000 21394.6688 21309.8070
ENERGY: 1000 0.0000 0.0000 0.0000 0.0000 -11231.3363 1340.9205 0.0000 0.0000 0.0000 -9890.4158 0.0000 -9890.4158 -9890.4158 0.0000 21586.0584 21511.9850 27000.0000 21586.0584 21511.9850
TCL: Running for 20000 steps
ETITLE: TS BOND ANGLE DIHED IMPRP ELECT VDW BOUNDARY MISC KINETIC TOTAL TEMP POTENTIAL TOTAL3 TEMPAVG PRESSURE GPRESSURE VOLUME PRESSAVG GPRESSAVG
ENERGY: 1000 0.0000 0.0000 0.0000 0.0000 -11231.3363 1340.9205 0.0000 0.0000 1478.1845 -8412.2313 300.1841 -9890.4158 -8412.4403 300.1841 -2417.5308 -2417.5308 27000.0000 -2417.5308 -2417.5308
ENERGY: 5000 0.0000 0.0000 0.0000 0.0000 -9514.0225 991.1419 0.0000 0.0000 1279.0566 -7243.8240 259.7460 -8522.8806 -7242.9177 259.7418 -225.5675 -226.1017 24215.7881 48.6921 48.5771
ENERGY: 9000 0.0000 0.0000 0.0000 0.0000 -9117.9965 892.0273 0.0000 0.0000 1398.9554 -6827.0139 284.0946 -8225.9692 -6826.0951 284.3536 -424.0898 -409.5547 24545.8223 4.4451 4.2238
ENERGY: 13000 0.0000 0.0000 0.0000 0.0000 -9079.3576 899.8409 0.0000 0.0000 1449.4160 -6730.1007 294.3419 -8179.5167 -6728.7971 290.3687 12.3133 7.8696 24481.6460 -51.0275 -51.7674
ENERGY: 17000 0.0000 0.0000 0.0000 0.0000 -8956.1894 902.8816 0.0000 0.0000 1376.7595 -6676.5483 279.5871 -8053.3078 -6676.5615 292.7181 306.7722 316.8669 24511.1213 -2.5643 -1.2718
ENERGY: 21000 0.0000 0.0000 0.0000 0.0000 -8996.3922 855.1285 0.0000 0.0000 1441.6308 -6699.6329 292.7609 -8141.2637 -6698.7793 297.0261 240.4229 240.1101 23756.4456 14.0769 11.7169
