Info: SIMULATION PARAMETERS:
Info: TIMESTEP               1
Info: NUMBER OF STEPS        0
Info: STEPS PER CYCLE        10
Info: PERIODIC CELL BASIS 1  30 0 0
Info: PERIODIC CELL BASIS 2  0 30 0
Info: PERIODIC CELL BASIS 3  0 0 30
Info: PERIODIC CELL CENTER   0 0 0
Info: WRAPPING ALL CLUSTERS AROUND PERIODIC BOUNDARIES ON OUTPUT.
Info: FIRST LDB TIMESTEP     50
Info: LAST LDB TIMESTEP     -1
Info: HOM BACKGROUND SCALING 1
Info: MIN ATOMS PER PATCH    40
Info: EMPTY PATCH LOAD       40 ATOMS
Info: INITIAL TEMPERATURE    298
Info: CENTER OF MASS MOVING INITIALLY? NO
Info: DIELECTRIC             1
Info: EXCLUDE                SCALED ONE-FOUR
Info: 1-4 ELECTROSTATICS SCALED BY 1
Info: MODIFIED 1-4 VDW PARAMETERS WILL BE USED
Info: DCD FILENAME           output.dcd
Info: DCD FREQUENCY          50
Info: DCD FIRST STEP         50
Info: DCD FILE WILL CONTAIN UNIT CELL DATA
Info: NO EXTENDED SYSTEM TRAJECTORY OUTPUT
Info: NO VELOCITY DCD OUTPUT
Info: NO FORCE DCD OUTPUT
Info: OUTPUT FILENAME        output
Info: BINARY OUTPUT FILES WILL BE USED
Info: NO RESTART FILE
Info: SWITCHING ACTIVE
Info: SWITCHING ON           10
Info: SWITCHING OFF          12
Info: PAIRLIST DISTANCE      14
Info: PAIRLIST SHRINK RATE   0.01
Info: PAIRLIST GROW RATE     0.01
Info: PAIRLIST TRIGGER       0.3
Info: PAIRLISTS PER CYCLE    2
Info: PAIRLISTS ENABLED
Info: MARGIN                 0
Info: HYDROGEN GROUP CUTOFF  2.5
Info: PATCH DIMENSION        16.5
Info: ENERGY OUTPUT STEPS    50
Info: ENERGY EVALUATION STEPS    50
Info: OUTPUT ENERGY PRECISION 4
Info: CROSSTERM ENERGY INCLUDED IN DIHEDRAL
Info: TIMING OUTPUT STEPS    50
Info: LANGEVIN DYNAMICS ACTIVE
Info: LANGEVIN TEMPERATURE   298
Info: LANGEVIN USING BBK INTEGRATOR
Info: LANGEVIN DAMPING COEFFICIENT IS 0.5 INVERSE PS
Info: LANGEVIN DYNAMICS NOT APPLIED TO HYDROGENS
Info: MULTILEVEL SUMMATION METHOD (MSM) FOR ELECTROSTATICS ACTIVE
Info: MSM WITH C1 CUBIC INTERPOLATION AND C2 TAYLOR SPLITTING
Info: FULL ELECTROSTATIC EVALUATION FREQUENCY      1
Info: USING VERLET I (r-RESPA) MTS SCHEME.
Info: C1 SPLITTING OF LONG RANGE ELECTROSTATICS
Info: PLACING ATOMS IN PATCHES BY HYDROGEN GROUPS
Info: RIGID BONDS TO HYDROGEN : ALL
Info:         ERROR TOLERANCE : 1e-08
Info:          MAX ITERATIONS : 100
Info: RIGID WATER USING SETTLE ALGORITHM
Info: RANDOM NUMBER SEED     1740228701
Info: USE HYDROGEN BONDS?    NO
Info: COORDINATE PDB         ionized.pdb
Info: STRUCTURE FILE         ionized.psf
Info: PARAMETER file: CHARMM format!
Info: PARAMETERS             par_all27_prot_lipid.inp
Info: USING ARITHMETIC MEAN TO COMBINE L-J SIGMA PARAMETERS
Info: SUMMARY OF PARAMETERS:
Info: 180 BONDS
Info: 447 ANGLES
Info: 566 DIHEDRAL
Info: 46 IMPROPER
Info: 6 CROSSTERM
Info: 119 VDW
Info: 0 VDW_PAIRS
Info: 0 NBTHOLE_PAIRS
Info: STRUCTURE SUMMARY:
Info: 2476 ATOMS
Info: 1650 BONDS
Info: 825 ANGLES
Info: 0 DIHEDRALS
Info: 0 IMPROPERS
Info: 0 CROSSTERMS
Info: 0 EXCLUSIONS
Info: 2475 RIGID BONDS
Info: 4953 DEGREES OF FREEDOM
Info: 826 HYDROGEN GROUPS
Info: 3 ATOMS IN LARGEST HYDROGEN GROUP
Info: 826 MIGRATION GROUPS
Info: 3 ATOMS IN LARGEST MIGRATION GROUP
Info: TOTAL MASS = 14885.7 amu
Info: TOTAL CHARGE = 1 e
Info: MASS DENSITY = 0.915513 g/cm^3
Info: ATOM DENSITY = 0.0917037 atoms/A^3
Info: ADDED 2475 IMPLICIT EXCLUSIONS
Info: NONBONDED TABLE R-SQUARED SPACING: 0.0625
Info: NONBONDED TABLE SIZE: 769 POINTS
Info: REMOVING COM VELOCITY -6.25733e-05 0.110603 -0.00928147
Info: MSM using C1 cubic interpolation
Info: MSM using C2 Taylor splitting function
Info: MSM block size decomposition along X is 8 grid points
Info: MSM block size decomposition along Y is 8 grid points
Info: MSM block size decomposition along Z is 8 grid points
Info: MSM grid spacing along X is 2.5 A
Info: MSM grid spacing along Y is 2.5 A
Info: MSM grid spacing along Z is 2.5 A
Info: MSM using 3 levels
Info:     level 0:  [0..11] x [0..11] x [0..11]
Info:     level 1:  [0..5] x [0..5] x [0..5]
Info:     level 2:  [0..2] x [0..2] x [0..2]
Info: MSM finished calculating stencils
Info: MSM finished creating map for grid levels
Info: MSM finished creating map for patches
Info: MSM has 9 interpolation / anterpolation objects (one per patch)
Info: MSM grid level 0 decomposed into 8 blocks ( 2 x 2 x 2 )
Info: MSM grid level 1 decomposed into 1 block ( 1 x 1 x 1 )
Info: MSM grid level 2 decomposed into 1 block ( 1 x 1 x 1 )
Info: MSM grid cutoff calculation decomposed into 783 work objects
TCL: Minimizing for 100 steps
ETITLE: TS BOND ANGLE DIHED IMPRP ELECT VDW BOUNDARY MISC KINETIC TOTAL TEMP POTENTIAL TOTAL3 TEMPAVG PRESSURE GPRESSURE VOLUME PRESSAVG GPRESSAVG
ENERGY: 0 0.0000 0.0000 0.0000 0.0000 -7348.6497 6353.7252 0.0000 0.0000 0.0000 -994.9245 0.0000 -994.9245 -994.9245 0.0000 75204.0846 46356.0500 27000.0000 75204.0846 46356.0500
ENERGY: 20 0.0000 0.0000 0.0000 0.0000 -8744.5980 644.7588 0.0000 0.0000 0.0000 -8099.8392 0.0000 -8099.8392 -8099.8392 0.0000 14286.6719 -2608.4252 27000.0000 14286.6719 -2608.4252
ENERGY: 40 0.0000 0.0000 0.0000 0.0000 -9255.3680 673.7888 0.0000 0.0000 0.0000 -8581.5792 0.0000 -8581.5792 -8581.5792 0.0000 14306.7127 -3612.4722 27000.0000 14306.7127 -3612.4722
ENERGY: 60 0.0000 0.0000 0.0000 0.0000 -9570.7008 738.1055 0.0000 0.0000 0.0000 -8832.5952 0.0000 -8832.5952 -8832.5952 0.0000 14889.9951 -3661.0805 27000.0000 14889.9951 -3661.0805
ENERGY: 80 0.0000 0.0000 0.0000 0.0000 -9709.9293 782.3779 0.0000 0.0000 0.0000 -8927.5514 0.0000 -8927.5514 -8927.5514 0.0000 15330.8379 -3519.5950 27000.0000 15330.8379 -3519.5950
ENERGY: 100 0.0000 0.0000 0.0000 0.0000 -9870.9002 823.6300 0.0000 0.0000 0.0000 -9047.2702 0.0000 -9047.2702 -9047.2702 0.0000 15747.2337 15671.8459 27000.0000 15747.2337 15671.8459
TCL: Running for 10000 steps
ETITLE: TS BOND ANGLE DIHED IMPRP ELECT VDW BOUNDARY MISC KINETIC TOTAL TEMP POTENTIAL TOTAL3 TEMPAVG PRESSURE GPRESSURE VOLUME PRESSAVG GPRESSAVG
ENERGY: 100 0.0000 0.0000 0.0000 0.0000 -9870.9003 823.6300 0.0000 0.0000 1495.3777 -7551.8926 303.8596 -9047.2703 -7552.1480 303.8596 -4778.5833 -4778.5833 27000.0000 -4778.5833 -4778.5833
ENERGY: 2100 0.0000 0.0000 0.0000 0.0000 -9464.6561 1002.2026 0.0000 0.0000 1184.2700 -7278.1835 240.6428 -8462.4535 -7277.4831 244.9781 -1531.8879 -1539.5839 27000.0000 -1765.6616 -1765.3646
ENERGY: 4100 0.0000 0.0000 0.0000 0.0000 -9375.3181 975.7735 0.0000 0.0000 1276.2802 -7123.2643 259.3392 -8399.5446 -7122.2025 257.1396 -1579.4417 -1574.4481 27000.0000 -1603.4292 -1602.0484
ENERGY: 6100 0.0000 0.0000 0.0000 0.0000 -9235.3284 934.3341 0.0000 0.0000 1308.5772 -6992.4171 265.9019 -8300.9943 -6992.4666 267.4121 -1544.2446 -1538.3769 27000.0000 -1557.8642 -1558.9870
ENERGY: 8100 0.0000 0.0000 0.0000 0.0000 -9011.7073 805.0804 0.0000 0.0000 1321.5235 -6885.1034 268.5326 -8206.6269 -6884.3253 271.1269 -2421.4548 -2439.5976 27000.0000 -2081.3478 -2081.9855
ENERGY: 10100 0.0000 0.0000 0.0000 0.0000 -9005.6097 871.6638 0.0000 0.0000 1377.3835 -6756.5625 279.8833 -8133.9459 -6755.6140 281.1102 -1563.1089 -1550.4570 27000.0000 -2006.6120 -2006.8633
