Info: SIMULATION PARAMETERS:
Info: TIMESTEP               2
Info: NUMBER OF STEPS        0
Info: STEPS PER CYCLE        10
Info: PERIODIC CELL BASIS 1  36.281 0 0
Info: PERIODIC CELL BASIS 2  0 34.26 0
Info: PERIODIC CELL BASIS 3  0 0 36.199
Info: PERIODIC CELL CENTER   0 0 0
Info: WRAPPING WATERS AROUND PERIODIC BOUNDARIES ON OUTPUT.
Info: WRAPPING ALL CLUSTERS AROUND PERIODIC BOUNDARIES ON OUTPUT.
Info: FIRST LDB TIMESTEP     50
Info: LAST LDB TIMESTEP     -1
Info: HOM BACKGROUND SCALING 1
Info: PME BACKGROUND SCALING 1
Info: MIN ATOMS PER PATCH    40
Info: EMPTY PATCH LOAD       40 ATOMS
Info: INITIAL TEMPERATURE    300
Info: CENTER OF MASS MOVING INITIALLY? NO
Info: DIELECTRIC             1
Info: EXCLUDE                SCALED ONE-FOUR
Info: 1-4 ELECTROSTATICS SCALED BY 0.833333
Info: MODIFIED 1-4 VDW PARAMETERS WILL BE USED
Info: DCD FILENAME           mobley_8057732_equil.dcd
Info: DCD FREQUENCY          100000
Info: DCD FIRST STEP         100000
Info: DCD FILE WILL CONTAIN UNIT CELL DATA
Info: XST FILENAME           mobley_8057732_equil.xst
Info: XST FREQUENCY          100000
Info: NO VELOCITY DCD OUTPUT
Info: NO FORCE DCD OUTPUT
Info: OUTPUT FILENAME        mobley_8057732_equil
Info: BINARY OUTPUT FILES WILL BE USED
Info: RESTART FILENAME       mobley_8057732_equil.restart
Info: RESTART FREQUENCY      100000
Info: BINARY RESTART FILES WILL BE USED
Info: CUTOFF                 9
Info: PAIRLIST DISTANCE      11
Info: PAIRLIST SHRINK RATE   0.01
Info: PAIRLIST GROW RATE     0.01
Info: PAIRLIST TRIGGER       0.3
Info: PAIRLISTS PER CYCLE    2
Info: PAIRLISTS ENABLED
Info: MARGIN                 8
Info: HYDROGEN GROUP CUTOFF  2.5
Info: PATCH DIMENSION        21.5
Info: ENERGY OUTPUT STEPS    100000
Info: ENERGY EVALUATION STEPS    100000
Info: OUTPUT ENERGY PRECISION 4
Info: CROSSTERM ENERGY INCLUDED IN DIHEDRAL
Info: TIMING OUTPUT STEPS    1000000
Info: PRESSURE OUTPUT STEPS  100000
Info: LANGEVIN DYNAMICS ACTIVE
Info: LANGEVIN TEMPERATURE   30
Info: LANGEVIN USING BBK INTEGRATOR
Info: LANGEVIN DAMPING COEFFICIENT IS 1 INVERSE PS
Info: LANGEVIN DYNAMICS APPLIED TO HYDROGENS
Info: LANGEVIN PISTON PRESSURE CONTROL ACTIVE
Info:        TARGET PRESSURE IS 1.01325 BAR
Info:     OSCILLATION PERIOD IS 50 FS
Info:             DECAY TIME IS 25 FS
Info:     PISTON TEMPERATURE IS 300 K
Info:       PRESSURE CONTROL IS GROUP-BASED
Info:    INITIAL STRAIN RATE IS 0 0 0
Info:       CELL FLUCTUATION IS ISOTROPIC
Info: PARTICLE MESH EWALD (PME) ACTIVE
Info: PME TOLERANCE               1e-06
Info: PME EWALD COEFFICIENT       0.348832
Info: PME INTERPOLATION ORDER     4
Info: PME GRID DIMENSIONS         40 36 40
Info: PME MAXIMUM GRID SPACING    1
Info: FULL ELECTROSTATIC EVALUATION FREQUENCY      2
Info: USING VERLET I (r-RESPA) MTS SCHEME.
Info: C1 SPLITTING OF LONG RANGE ELECTROSTATICS
Info: PLACING ATOMS IN PATCHES BY HYDROGEN GROUPS
Info: RIGID BONDS TO HYDROGEN : ALL
Info:         ERROR TOLERANCE : 1e-08
Info:          MAX ITERATIONS : 100
Info: RIGID WATER USING SETTLE ALGORITHM
Info: RANDOM NUMBER SEED     1742525717
Info: USE HYDROGEN BONDS?    NO
Info: Using AMBER format force field!
Info: AMBER PARM FILE        mobley_8057732.prmtop
Info: COORDINATE PDB         mobley_8057732.pdb
Info: Exclusions will be read from PARM file!
Info: SCNB (VDW SCALING)     2
Info: USING ARITHMETIC MEAN TO COMBINE L-J SIGMA PARAMETERS
Info: BINARY COORDINATES     mobley_8057732_min.coor
Info: SUMMARY OF PARAMETERS:
Info: 7 BONDS
Info: 5 ANGLES
Info:   5 HARMONIC
Info:   0 COSINE-BASED
Info: 3 DIHEDRAL
Info: 0 IMPROPER
Info: 0 CROSSTERM
Info: 0 VDW
Info: 28 VDW_PAIRS
Info: 0 NBTHOLE_PAIRS
Info: STRUCTURE SUMMARY:
Info: 2995 ATOMS
Info: 2995 BONDS
Info: 19 ANGLES
Info: 31 DIHEDRALS
Info: 0 IMPROPERS
Info: 0 CROSSTERMS
Info: 3037 EXCLUSIONS
Info: 2987 RIGID BONDS
Info: 5998 DEGREES OF FREEDOM
Info: 1002 HYDROGEN GROUPS
Info: 3 ATOMS IN LARGEST HYDROGEN GROUP
Info: 1002 MIGRATION GROUPS
Info: 3 ATOMS IN LARGEST MIGRATION GROUP
Info: TOTAL MASS = 18036.5 amu
Info: TOTAL CHARGE = -0.000199962 e
Info: MASS DENSITY = 0.665652 g/cm^3
Info: ATOM DENSITY = 0.0665631 atoms/A^3
Info: ADDED 0 IMPLICIT EXCLUSIONS
Info: NONBONDED TABLE R-SQUARED SPACING: 0.0625
Info: NONBONDED TABLE SIZE: 705 POINTS
Info: REMOVING COM VELOCITY -0.168587 -0.0220685 -0.0287262
TCL: Running for 100000 steps
ETITLE: TS BOND ANGLE DIHED IMPRP ELECT VDW BOUNDARY MISC KINETIC TOTAL TEMP POTENTIAL TOTAL3 TEMPAVG PRESSURE GPRESSURE VOLUME PRESSAVG GPRESSAVG
ENERGY: 0 0.0897 0.0528 0.2698 0.0000 -13895.4309 2445.4918 0.0000 0.0000 1730.6786 -9718.8482 290.4025 -11449.5268 -9718.5082 290.4025 365.6977 396.9260 44994.8886 365.6977 396.9260
ENERGY: 100000 0.4299 0.4424 0.6662 0.0000 -14533.5924 2582.8094 0.0000 0.0000 175.7896 -11773.4550 29.4969 -11949.2446 -11772.8931 30.8932 254.3742 306.8157 29655.4513 3.3331 3.3279
TCL: Running 100000 steps at 60 kelvin.
TCL: Setting parameter langevinTemp to 60
TCL: Running for 100000 steps
ETITLE: TS BOND ANGLE DIHED IMPRP ELECT VDW BOUNDARY MISC KINETIC TOTAL TEMP POTENTIAL TOTAL3 TEMPAVG PRESSURE GPRESSURE VOLUME PRESSAVG GPRESSAVG
ENERGY: 100000 0.4299 0.4424 0.6662 0.0000 -14533.5924 2582.8094 0.0000 0.0000 175.7006 -11773.5440 29.4820 -11949.2446 -11773.2096 29.4820 249.5056 306.7261 29655.4513 249.5056 306.7261
ENERGY: 200000 1.4769 0.3045 0.6309 0.0000 -14430.1610 2561.9656 0.0000 0.0000 367.6249 -11498.1583 61.6863 -11865.7832 -11497.7031 60.0245 555.1729 613.4071 29371.6034 3.6288 3.5752
TCL: Running 100000 steps at 90 kelvin.
TCL: Setting parameter langevinTemp to 90
TCL: Running for 100000 steps
ETITLE: TS BOND ANGLE DIHED IMPRP ELECT VDW BOUNDARY MISC KINETIC TOTAL TEMP POTENTIAL TOTAL3 TEMPAVG PRESSURE GPRESSURE VOLUME PRESSAVG GPRESSAVG
ENERGY: 200000 1.4769 0.3045 0.6309 0.0000 -14430.1610 2561.9656 0.0000 0.0000 367.4486 -11498.3346 61.6567 -11865.7832 -11497.5452 61.6567 549.5055 612.9760 29371.6034 549.5055 612.9760
ENERGY: 300000 0.7922 0.3506 1.5865 0.0000 -14193.1224 2423.0329 0.0000 0.0000 551.1390 -11216.2213 92.4794 -11767.3603 -11214.1314 89.9546 -183.0628 -96.0053 29336.5624 3.9518 3.9730
TCL: Running 100000 steps at 120 kelvin.
TCL: Setting parameter langevinTemp to 120
TCL: Running for 100000 steps
ETITLE: TS BOND ANGLE DIHED IMPRP ELECT VDW BOUNDARY MISC KINETIC TOTAL TEMP POTENTIAL TOTAL3 TEMPAVG PRESSURE GPRESSURE VOLUME PRESSAVG GPRESSAVG
ENERGY: 300000 0.7922 0.3506 1.5865 0.0000 -14193.1224 2423.0329 0.0000 0.0000 550.8699 -11216.4904 92.4343 -11767.3603 -11215.3726 92.4343 -152.2641 -95.3667 29336.5624 -152.2641 -95.3667
ENERGY: 400000 1.2547 1.2714 1.5756 0.0000 -13981.2378 2383.3985 0.0000 0.0000 698.3946 -10895.3429 117.1884 -11593.7375 -10894.0513 120.1998 162.5133 204.1294 29442.7385 4.6172 4.5934
TCL: Running 100000 steps at 150 kelvin.
TCL: Setting parameter langevinTemp to 150
TCL: Running for 100000 steps
ETITLE: TS BOND ANGLE DIHED IMPRP ELECT VDW BOUNDARY MISC KINETIC TOTAL TEMP POTENTIAL TOTAL3 TEMPAVG PRESSURE GPRESSURE VOLUME PRESSAVG GPRESSAVG
ENERGY: 400000 1.2547 1.2714 1.5756 0.0000 -13981.2378 2383.3985 0.0000 0.0000 698.0441 -10895.6934 117.1296 -11593.7375 -10894.2461 117.1296 159.4892 204.0762 29442.7385 159.4892 204.0762
ENERGY: 500000 1.4002 2.7984 1.9655 0.0000 -13722.0361 2249.1987 0.0000 0.0000 897.6879 -10568.9853 150.6293 -11466.6732 -10567.5325 150.0093 -400.3524 -381.5778 29569.1498 5.2047 5.0975
TCL: Running 100000 steps at 180 kelvin.
TCL: Setting parameter langevinTemp to 180
TCL: Running for 100000 steps
ETITLE: TS BOND ANGLE DIHED IMPRP ELECT VDW BOUNDARY MISC KINETIC TOTAL TEMP POTENTIAL TOTAL3 TEMPAVG PRESSURE GPRESSURE VOLUME PRESSAVG GPRESSAVG
ENERGY: 500000 1.4002 2.7984 1.9655 0.0000 -13722.0361 2249.1987 0.0000 0.0000 897.2431 -10569.4301 150.5546 -11466.6732 -10567.4722 150.5546 -441.7470 -382.6106 29569.1498 -441.7470 -382.6106
ENERGY: 600000 1.0056 1.2710 2.4734 0.0000 -13197.2627 2049.6333 0.0000 0.0000 1060.6396 -10082.2397 177.9720 -11142.8793 -10078.4750 179.8178 -744.7357 -679.2308 29532.9116 2.7461 2.8725
TCL: Running 100000 steps at 210 kelvin.
TCL: Setting parameter langevinTemp to 210
TCL: Running for 100000 steps
ETITLE: TS BOND ANGLE DIHED IMPRP ELECT VDW BOUNDARY MISC KINETIC TOTAL TEMP POTENTIAL TOTAL3 TEMPAVG PRESSURE GPRESSURE VOLUME PRESSAVG GPRESSAVG
ENERGY: 600000 1.0056 1.2710 2.4734 0.0000 -13197.2627 2049.6333 0.0000 0.0000 1060.1021 -10082.7772 177.8818 -11142.8793 -10080.4623 177.8818 -721.8908 -678.7837 29532.9116 -721.8908 -678.7837
ENERGY: 700000 1.2566 2.9693 1.4985 0.0000 -12584.1114 1871.8076 0.0000 0.0000 1211.4146 -9495.1648 203.2716 -10706.5794 -9491.3129 209.8387 -717.6602 -667.7572 29449.4733 1.9315 1.9255
TCL: Running 100000 steps at 240 kelvin.
TCL: Setting parameter langevinTemp to 240
TCL: Running for 100000 steps
ETITLE: TS BOND ANGLE DIHED IMPRP ELECT VDW BOUNDARY MISC KINETIC TOTAL TEMP POTENTIAL TOTAL3 TEMPAVG PRESSURE GPRESSURE VOLUME PRESSAVG GPRESSAVG
ENERGY: 700000 1.2566 2.9693 1.4985 0.0000 -12584.1114 1871.8076 0.0000 0.0000 1210.8088 -9495.7707 203.1700 -10706.5794 -9493.6091 203.1700 -756.9597 -667.8896 29449.4733 -756.9597 -667.8896
ENERGY: 800000 2.2617 2.7369 3.8262 0.0000 -11978.5047 1725.7685 0.0000 0.0000 1432.4258 -8811.4856 240.3566 -10243.9114 -8808.0009 240.2374 44.8126 113.9306 29233.9655 3.6875 3.7639
TCL: Running 100000 steps at 270 kelvin.
TCL: Setting parameter langevinTemp to 270
TCL: Running for 100000 steps
ETITLE: TS BOND ANGLE DIHED IMPRP ELECT VDW BOUNDARY MISC KINETIC TOTAL TEMP POTENTIAL TOTAL3 TEMPAVG PRESSURE GPRESSURE VOLUME PRESSAVG GPRESSAVG
ENERGY: 800000 2.2617 2.7369 3.8262 0.0000 -11978.5047 1725.7685 0.0000 0.0000 1431.7074 -8812.2039 240.2361 -10243.9114 -8810.1420 240.2361 22.1451 115.3273 29233.9655 22.1451 115.3273
ENERGY: 900000 1.1499 4.1308 2.4008 0.0000 -11412.1327 1597.0792 0.0000 0.0000 1586.3377 -8221.0343 266.1825 -9807.3720 -8215.3689 269.8138 -142.0047 -33.2890 30284.9994 2.6143 2.4557
TCL: Running 1000000 steps at 300 kelvin.
TCL: Setting parameter langevinTemp to 300
TCL: Running for 1000000 steps
ETITLE: TS BOND ANGLE DIHED IMPRP ELECT VDW BOUNDARY MISC KINETIC TOTAL TEMP POTENTIAL TOTAL3 TEMPAVG PRESSURE GPRESSURE VOLUME PRESSAVG GPRESSAVG
ENERGY: 900000 1.1499 4.1308 2.4008 0.0000 -11412.1327 1597.0792 0.0000 0.0000 1585.5163 -8221.8557 266.0447 -9807.3720 -8219.7997 266.0447 -114.7061 -31.0093 30284.9994 -114.7061 -31.0093
ENERGY: 1100000 2.1463 3.7347 3.5475 0.0000 -10845.8994 1417.0682 0.0000 0.0000 1718.2149 -7701.1878 288.3111 -9419.4027 -7695.7885 300.0475 -526.8448 -445.2414 30950.6405 3.9216 3.7801
ENERGY: 1300000 0.7144 3.5304 1.8764 0.0000 -10972.5818 1509.1301 0.0000 0.0000 1795.1629 -7662.1676 301.2228 -9457.3305 -7657.8820 300.2838 251.2997 338.5306 30683.3336 2.5113 2.4657
ENERGY: 1500000 3.2168 3.7073 3.5327 0.0000 -10955.8630 1462.3715 0.0000 0.0000 1839.7865 -7643.2482 308.7105 -9483.0347 -7639.0891 301.1565 -55.0040 -7.2145 30548.2872 3.8821 3.9238
ENERGY: 1700000 2.3134 5.6020 1.7307 0.0000 -10824.7788 1467.6648 0.0000 0.0000 1827.2347 -7520.2332 306.6043 -9347.4679 -7515.8581 300.8392 48.5704 136.5073 31314.4445 4.1302 4.0371
ENERGY: 1900000 3.6695 3.2113 3.7881 0.0000 -10767.9317 1410.8684 0.0000 0.0000 1829.9787 -7516.4158 307.0647 -9346.3944 -7511.3381 300.8214 -142.4998 -91.0876 30871.6629 3.1555 3.1737
TCL: Exiting due to exit command.
