Info: SIMULATION PARAMETERS:
Info: TIMESTEP               2
Info: NUMBER OF STEPS        0
Info: STEPS PER CYCLE        10
Info: PERIODIC CELL BASIS 1  31.2433 0 0
Info: PERIODIC CELL BASIS 2  0 30.7709 0
Info: PERIODIC CELL BASIS 3  0 0 31.9014
Info: PERIODIC CELL CENTER   0 0 0
Info: WRAPPING WATERS AROUND PERIODIC BOUNDARIES ON OUTPUT.
Info: WRAPPING ALL CLUSTERS AROUND PERIODIC BOUNDARIES ON OUTPUT.
Info: FIRST LDB TIMESTEP     50
Info: LAST LDB TIMESTEP     -1
Info: HOM BACKGROUND SCALING 1
Info: PME BACKGROUND SCALING 1
Info: MIN ATOMS PER PATCH    40
Info: EMPTY PATCH LOAD       40 ATOMS
Info: VELOCITY FILE          mobley_7732703_equil.vel
Info: CENTER OF MASS MOVING INITIALLY? NO
Info: DIELECTRIC             1
Info: EXCLUDE                SCALED ONE-FOUR
Info: 1-4 ELECTROSTATICS SCALED BY 0.833333
Info: MODIFIED 1-4 VDW PARAMETERS WILL BE USED
Info: DCD FILENAME           mobley_7732703_prod.dcd
Info: DCD FREQUENCY          100000
Info: DCD FIRST STEP         100000
Info: DCD FILE WILL CONTAIN UNIT CELL DATA
Info: XST FILENAME           mobley_7732703_prod.xst
Info: XST FREQUENCY          100000
Info: NO VELOCITY DCD OUTPUT
Info: NO FORCE DCD OUTPUT
Info: OUTPUT FILENAME        mobley_7732703_prod
Info: BINARY OUTPUT FILES WILL BE USED
Info: RESTART FILENAME       mobley_7732703_prod.restart
Info: RESTART FREQUENCY      100000
Info: BINARY RESTART FILES WILL BE USED
Info: CUTOFF                 9
Info: PAIRLIST DISTANCE      11
Info: PAIRLIST SHRINK RATE   0.01
Info: PAIRLIST GROW RATE     0.01
Info: PAIRLIST TRIGGER       0.3
Info: PAIRLISTS PER CYCLE    2
Info: PAIRLISTS ENABLED
Info: MARGIN                 2
Info: HYDROGEN GROUP CUTOFF  2.5
Info: PATCH DIMENSION        15.5
Info: ENERGY OUTPUT STEPS    100000
Info: ENERGY EVALUATION STEPS    100000
Info: OUTPUT ENERGY PRECISION 4
Info: CROSSTERM ENERGY INCLUDED IN DIHEDRAL
Info: TIMING OUTPUT STEPS    1000000
Info: PRESSURE OUTPUT STEPS  100000
Info: ALCHEMICAL FEP ON
Info: FEP CURRENT LAMBDA VALUE     0
Info: FEP COMPARISON LAMBDA VALUE  0.05
Info: FEP INTRA-ALCHEMICAL NON-BONDED INTERACTIONS WILL BE RETAINED
Info: FEP INTRA-ALCHEMICAL BONDED INTERACTIONS WILL BE RETAINED
Info: FEP VDW SHIFTING COEFFICIENT 5
Info: FEP ELEC. ACTIVE FOR ANNIHILATED PARTICLES BETWEEN LAMBDA = 0 AND LAMBDA = 0.5
Info: FEP ELEC. ACTIVE FOR EXNIHILATED PARTICLES BETWEEN LAMBDA = 0.5 AND LAMBDA = 1
Info: FEP VDW ACTIVE FOR ANNIHILATED PARTICLES BETWEEN LAMBDA = 0 AND LAMBDA = 1
Info: FEP VDW ACTIVE FOR EXNIHILATED PARTICLES BETWEEN LAMBDA = 0 AND LAMBDA = 1
Info: FEP BOND ACTIVE FOR ANNIHILATED PARTICLES BETWEEN LAMBDA = 1 AND LAMBDA = 1
Info: FEP BOND ACTIVE FOR EXNIHILATED PARTICLES BETWEEN LAMBDA = 0 AND LAMBDA = 0
Info: LANGEVIN DYNAMICS ACTIVE
Info: LANGEVIN TEMPERATURE   300
Info: LANGEVIN USING BBK INTEGRATOR
Info: LANGEVIN DAMPING COEFFICIENT IS 1 INVERSE PS
Info: LANGEVIN DYNAMICS APPLIED TO HYDROGENS
Info: LANGEVIN PISTON PRESSURE CONTROL ACTIVE
Info:        TARGET PRESSURE IS 1.01325 BAR
Info:     OSCILLATION PERIOD IS 50 FS
Info:             DECAY TIME IS 25 FS
Info:     PISTON TEMPERATURE IS 300 K
Info:       PRESSURE CONTROL IS GROUP-BASED
Info:    INITIAL STRAIN RATE IS 0.000991263 0.000991263 0.000991263
Info:       CELL FLUCTUATION IS ISOTROPIC
Info: PARTICLE MESH EWALD (PME) ACTIVE
Info: PME TOLERANCE               1e-06
Info: PME EWALD COEFFICIENT       0.348832
Info: PME INTERPOLATION ORDER     4
Info: PME GRID DIMENSIONS         32 32 32
Info: PME MAXIMUM GRID SPACING    1
Info: PME CALCULATION WILL BE PERFORMED ON GPU
Info: FULL ELECTROSTATIC EVALUATION FREQUENCY      2
Info: USING VERLET I (r-RESPA) MTS SCHEME.
Info: C1 SPLITTING OF LONG RANGE ELECTROSTATICS
Info: PLACING ATOMS IN PATCHES BY HYDROGEN GROUPS
Info: RIGID BONDS TO HYDROGEN : ALL
Info:         ERROR TOLERANCE : 1e-08
Info:          MAX ITERATIONS : 100
Info: RIGID WATER USING SETTLE ALGORITHM
Info: RANDOM NUMBER SEED     1741957775
Info: USE HYDROGEN BONDS?    NO
Info: Using AMBER format force field!
Info: AMBER PARM FILE        mobley_7732703.prmtop
Info: COORDINATE PDB         mobley_7732703.pdb
Info: Exclusions will be read from PARM file!
Info: SCNB (VDW SCALING)     2
Info: USING ARITHMETIC MEAN TO COMBINE L-J SIGMA PARAMETERS
Info: BINARY COORDINATES     mobley_7732703_equil.coor
Info: SUMMARY OF PARAMETERS:
Info: 4 BONDS
Info: 2 ANGLES
Info:   2 HARMONIC
Info:   0 COSINE-BASED
Info: 0 DIHEDRAL
Info: 0 IMPROPER
Info: 0 CROSSTERM
Info: 0 VDW
Info: 15 VDW_PAIRS
Info: 0 NBTHOLE_PAIRS
Info: To read alchdata from file: mobley_7732703.pdb
Info: To read alchflag data from column: 5
Info: STRUCTURE SUMMARY:
Info: 2921 ATOMS
Info: 2920 BONDS
Info: 6 ANGLES
Info: 0 DIHEDRALS
Info: 0 IMPROPERS
Info: 0 CROSSTERMS
Info: 2926 EXCLUSIONS
Info: 2916 RIGID BONDS
Info: ALCH: 0 ATOMS TO DISAPPEAR IN FINAL STATE
Info: ALCH: 5 ATOMS TO APPEAR IN FINAL STATE
Info: 5847 DEGREES OF FREEDOM
Info: 977 HYDROGEN GROUPS
Info: 3 ATOMS IN LARGEST HYDROGEN GROUP
Info: 977 MIGRATION GROUPS
Info: 3 ATOMS IN LARGEST MIGRATION GROUP
Info: TOTAL MASS = 17660.5 amu
Info: TOTAL CHARGE = 9.99942e-05 e
Info: MASS DENSITY = 0.956213 g/cm^3
Info: ATOM DENSITY = 0.0952412 atoms/A^3
Info: ADDED 0 IMPLICIT EXCLUSIONS
Info: NONBONDED TABLE R-SQUARED SPACING: 0.0625
Info: NONBONDED TABLE SIZE: 705 POINTS
Info: REMOVING COM VELOCITY -0.248858 -0.0610588 -0.00944608
Info: Use 3D box decompostion in PME FFT.
Info: Updated CUDA force table with 4096 elements.
Info: Updated CUDA LJ table with 5 x 5 elements.
Info: Found 8 unique exclusion lists needing 8 bytes
TCL: Running for 1500000 steps
ETITLE: TS BOND ANGLE DIHED IMPRP ELECT VDW BOUNDARY MISC KINETIC TOTAL TEMP POTENTIAL TOTALAVG TEMPAVG PRESSURE GPRESSURE VOLUME PRESSAVG GPRESSAVG
ENERGY: 0 2.0867 0.9852 0.0000 0.0000 -10629.8305 1485.1683 0.0000 0.0000 1746.0629 -7395.5274 300.5503 -9141.5904 -7395.5274 300.5503 275.9000 373.7406 30669.4972 275.9000 373.7406
ENERGY: 300000 2.1685 0.4647 0.0000 0.0000 -10627.5332 1384.4180 0.0000 0.0000 1737.7156 -7502.7663 299.1135 -9240.4819 -7437.9582 298.6753 -422.5507 -305.1426 29933.7421 -129.4792 -62.1705
ENERGY: 600000 0.6624 0.8259 0.0000 0.0000 -10654.2822 1496.5159 0.0000 0.0000 1738.0494 -7418.2286 299.1709 -9156.2781 -7432.2232 298.9947 461.4047 504.1843 30050.7384 52.9522 111.3141
ENERGY: 900000 1.6794 2.2544 0.0000 0.0000 -10731.7281 1453.8694 0.0000 0.0000 1741.4864 -7532.4386 299.7626 -9273.9250 -7437.6582 299.7437 -280.7292 -267.1147 30336.8784 41.1317 100.9774
ENERGY: 1200000 1.1937 3.7530 0.0000 0.0000 -10502.4834 1323.3946 0.0000 0.0000 1753.7690 -7420.3732 301.8768 -9174.1422 -7439.6489 299.5161 -923.6819 -888.3984 30230.8834 -124.6404 -65.3635
ENERGY: 1500000 1.8732 2.2416 0.0000 0.0000 -10613.5579 1454.6679 0.0000 0.0000 1688.5031 -7466.2721 290.6425 -9154.7752 -7447.9652 298.2702 57.7829 77.2661 30172.0640 -103.1133 -43.0901
TCL: Running FEP window   2: Lambda1 0.05   Lambda2 0.1    [dLambda 0.05  ]
TCL: Setting parameter firsttimestep to 0
TCL: Setting parameter alchLambda to 0.05
Info: NONBONDED TABLE R-SQUARED SPACING: 0.0625
Info: NONBONDED TABLE SIZE: 705 POINTS
TCL: Setting parameter alchLambda2 to 0.1
Info: NONBONDED TABLE R-SQUARED SPACING: 0.0625
Info: NONBONDED TABLE SIZE: 705 POINTS
TCL: Running for 1500000 steps
ETITLE: TS BOND ANGLE DIHED IMPRP ELECT VDW BOUNDARY MISC KINETIC TOTAL TEMP POTENTIAL TOTALAVG TEMPAVG PRESSURE GPRESSURE VOLUME PRESSAVG GPRESSAVG
ENERGY: 0 1.8732 2.2416 0.0000 0.0000 -10613.5592 1454.8762 0.0000 0.0000 1687.6062 -7466.9620 290.4881 -9154.5682 -7466.9620 290.4881 -8.2683 76.8957 30172.0640 -8.2683 76.8957
ENERGY: 300000 1.2155 2.8026 0.0000 0.0000 -10533.8219 1357.0480 0.0000 0.0000 1731.6701 -7441.0856 298.0729 -9172.7557 -7430.4981 300.5063 -644.3242 -621.0221 30365.1836 55.1788 111.9867
ENERGY: 600000 1.5913 1.9642 0.0000 0.0000 -10670.1379 1481.1496 0.0000 0.0000 1688.0100 -7497.4228 290.5576 -9185.4328 -7437.9698 299.0758 550.2013 595.1970 29656.1516 7.2281 49.6759
ENERGY: 900000 0.8566 0.7702 0.0000 0.0000 -10778.6267 1514.5470 0.0000 0.0000 1743.4512 -7519.0016 300.1008 -9262.4529 -7444.3597 299.4959 514.0013 583.9708 29852.8984 134.8439 183.1927
ENERGY: 1200000 0.8209 1.1960 0.0000 0.0000 -10476.9383 1346.9456 0.0000 0.0000 1754.0429 -7373.9330 301.9239 -9127.9759 -7443.4878 300.4998 -493.9671 -455.0512 30162.3437 -9.7940 46.1155
ENERGY: 1500000 2.1647 0.9955 0.0000 0.0000 -10643.4481 1441.2177 0.0000 0.0000 1738.1554 -7460.9148 299.1892 -9199.0702 -7436.3301 300.6810 14.4981 26.1732 29941.0133 -42.2971 9.2395
TCL: Running FEP window   3: Lambda1 0.1    Lambda2 0.15000000000000002 [dLambda 0.05000000000000002]
TCL: Setting parameter firsttimestep to 0
TCL: Setting parameter alchLambda to 0.1
Info: NONBONDED TABLE R-SQUARED SPACING: 0.0625
Info: NONBONDED TABLE SIZE: 705 POINTS
TCL: Setting parameter alchLambda2 to 0.15000000000000002
Info: NONBONDED TABLE R-SQUARED SPACING: 0.0625
Info: NONBONDED TABLE SIZE: 705 POINTS
TCL: Running for 1500000 steps
ETITLE: TS BOND ANGLE DIHED IMPRP ELECT VDW BOUNDARY MISC KINETIC TOTAL TEMP POTENTIAL TOTALAVG TEMPAVG PRESSURE GPRESSURE VOLUME PRESSAVG GPRESSAVG
ENERGY: 0 2.1647 0.9955 0.0000 0.0000 -10643.4482 1443.5440 0.0000 0.0000 1737.2781 -7459.4659 299.0382 -9196.7440 -7459.4659 299.0382 -46.4631 32.5982 29941.0133 -46.4631 32.5982
ENERGY: 300000 2.6275 2.4539 0.0000 0.0000 -10725.5114 1497.5312 0.0000 0.0000 1801.2944 -7421.6044 310.0573 -9222.8988 -7432.8030 301.2965 326.4570 400.3497 30181.5558 -239.5087 -166.6117
ENERGY: 600000 0.9247 1.6044 0.0000 0.0000 -10496.6207 1369.9296 0.0000 0.0000 1763.2141 -7360.9479 303.5025 -9124.1620 -7419.8578 301.3204 -355.6848 -237.0051 30047.4541 -219.2248 -130.4151
ENERGY: 900000 1.8882 0.7963 0.0000 0.0000 -10718.6112 1457.8101 0.0000 0.0000 1705.5054 -7552.6111 293.5691 -9258.1165 -7430.9597 299.6311 20.9546 118.4669 30028.4932 -88.9354 -4.9973
ENERGY: 1200000 2.5502 0.4347 0.0000 0.0000 -10612.7515 1399.1822 0.0000 0.0000 1725.3912 -7485.1931 296.9921 -9210.5843 -7439.2904 299.0853 -487.5657 -445.5735 30010.6618 -164.3161 -85.1551
ENERGY: 1500000 2.5388 1.9983 0.0000 0.0000 -10578.9819 1443.6874 0.0000 0.0000 1726.9665 -7403.7908 297.2632 -9130.7573 -7446.3898 299.2233 322.3104 397.1708 29916.4038 -201.0002 -127.7393
TCL: Running FEP window   4: Lambda1 0.15000000000000002 Lambda2 0.2    [dLambda 0.04999999999999999]
TCL: Setting parameter firsttimestep to 0
TCL: Setting parameter alchLambda to 0.15000000000000002
Info: NONBONDED TABLE R-SQUARED SPACING: 0.0625
Info: NONBONDED TABLE SIZE: 705 POINTS
TCL: Setting parameter alchLambda2 to 0.2
Info: NONBONDED TABLE R-SQUARED SPACING: 0.0625
Info: NONBONDED TABLE SIZE: 705 POINTS
TCL: Running for 1500000 steps
ETITLE: TS BOND ANGLE DIHED IMPRP ELECT VDW BOUNDARY MISC KINETIC TOTAL TEMP POTENTIAL TOTALAVG TEMPAVG PRESSURE GPRESSURE VOLUME PRESSAVG GPRESSAVG
ENERGY: 0 2.5388 1.9983 0.0000 0.0000 -10578.9812 1444.1944 0.0000 0.0000 1726.1134 -7404.1363 297.1164 -9130.2496 -7404.1363 297.1164 322.4346 399.3799 29916.4038 322.4346 399.3799
ENERGY: 300000 2.6009 3.2226 0.0000 0.0000 -10653.5305 1511.6577 0.0000 0.0000 1713.7507 -7422.2986 294.9884 -9136.0493 -7395.0663 297.7311 707.9287 724.5130 30170.1517 208.9397 280.3047
ENERGY: 600000 1.8801 1.7676 0.0000 0.0000 -10650.5088 1427.4555 0.0000 0.0000 1737.3213 -7482.0843 299.0456 -9219.4056 -7408.3176 300.6005 -457.2703 -427.4140 30513.4136 175.0678 241.7739
ENERGY: 900000 1.1678 0.6244 0.0000 0.0000 -10619.4624 1478.5629 0.0000 0.0000 1745.1391 -7393.9683 300.3913 -9139.1074 -7409.0162 300.8442 499.8092 574.2534 30069.1898 90.6401 158.0391
ENERGY: 1200000 1.4422 1.4818 0.0000 0.0000 -10617.8708 1408.6947 0.0000 0.0000 1782.0464 -7424.2058 306.7442 -9206.2522 -7425.3209 299.9839 22.9537 67.9292 29570.9164 65.4071 125.0014
ENERGY: 1500000 1.3752 1.1150 0.0000 0.0000 -10664.7235 1380.6483 0.0000 0.0000 1748.0826 -7533.5024 300.8980 -9281.5850 -7433.4881 300.4619 -361.1645 -354.2550 29787.3176 61.6661 117.4602
TCL: Running FEP window   5: Lambda1 0.2    Lambda2 0.25   [dLambda 0.04999999999999999]
TCL: Setting parameter firsttimestep to 0
TCL: Setting parameter alchLambda to 0.2
Info: NONBONDED TABLE R-SQUARED SPACING: 0.0625
Info: NONBONDED TABLE SIZE: 705 POINTS
TCL: Setting parameter alchLambda2 to 0.25
Info: NONBONDED TABLE R-SQUARED SPACING: 0.0625
Info: NONBONDED TABLE SIZE: 705 POINTS
TCL: Running for 1500000 steps
ETITLE: TS BOND ANGLE DIHED IMPRP ELECT VDW BOUNDARY MISC KINETIC TOTAL TEMP POTENTIAL TOTALAVG TEMPAVG PRESSURE GPRESSURE VOLUME PRESSAVG GPRESSAVG
ENERGY: 0 1.3752 1.1150 0.0000 0.0000 -10664.7222 1381.1159 0.0000 0.0000 1747.2159 -7533.9003 300.7488 -9281.1162 -7533.9003 300.7488 -428.6824 -349.1134 29787.3176 -428.6824 -349.1134
ENERGY: 300000 0.3333 0.4415 0.0000 0.0000 -10546.3941 1405.4722 0.0000 0.0000 1843.6450 -7296.5020 317.3471 -9140.1470 -7393.2531 308.1683 -168.9048 -72.3041 30175.8992 -6.0966 49.8850
ENERGY: 600000 0.4506 2.5332 0.0000 0.0000 -10641.3971 1404.3923 0.0000 0.0000 1720.8184 -7513.2027 296.2050 -9234.0211 -7415.0382 302.7439 -538.2761 -432.8728 30244.7621 23.5793 82.7510
ENERGY: 900000 1.6596 1.8143 0.0000 0.0000 -10564.2906 1415.9201 0.0000 0.0000 1723.3421 -7421.5545 296.6394 -9144.8966 -7422.2778 302.7193 9.5786 102.1657 29981.2788 17.4188 86.0871
ENERGY: 1200000 1.0722 1.4816 0.0000 0.0000 -10814.1938 1505.5710 0.0000 0.0000 1747.1451 -7558.9240 300.7366 -9306.0690 -7435.6647 301.0113 263.4166 317.3534 29990.5758 -6.0456 60.7332
ENERGY: 1500000 1.1219 1.6534 0.0000 0.0000 -10753.1557 1529.5357 0.0000 0.0000 1757.3777 -7463.4671 302.4979 -9220.8448 -7438.1454 300.9096 854.0877 858.1757 29615.2103 54.6654 126.0147
TCL: Running FEP window   6: Lambda1 0.25   Lambda2 0.3    [dLambda 0.04999999999999999]
TCL: Setting parameter firsttimestep to 0
TCL: Setting parameter alchLambda to 0.25
Info: NONBONDED TABLE R-SQUARED SPACING: 0.0625
Info: NONBONDED TABLE SIZE: 705 POINTS
TCL: Setting parameter alchLambda2 to 0.3
Info: NONBONDED TABLE R-SQUARED SPACING: 0.0625
Info: NONBONDED TABLE SIZE: 705 POINTS
TCL: Running for 1500000 steps
ETITLE: TS BOND ANGLE DIHED IMPRP ELECT VDW BOUNDARY MISC KINETIC TOTAL TEMP POTENTIAL TOTALAVG TEMPAVG PRESSURE GPRESSURE VOLUME PRESSAVG GPRESSAVG
ENERGY: 0 1.1219 1.6534 0.0000 0.0000 -10753.1552 1529.1941 0.0000 0.0000 1756.5564 -7464.6294 302.3566 -9221.1858 -7464.6294 302.3566 765.3611 859.5922 29615.2103 765.3611 859.5922
ENERGY: 300000 1.3627 0.2206 0.0000 0.0000 -10606.5482 1462.5256 0.0000 0.0000 1794.9204 -7347.5188 308.9602 -9142.4393 -7404.3663 303.1072 517.1674 596.0430 30109.7572 120.4495 196.0558
ENERGY: 600000 0.9603 0.3347 0.0000 0.0000 -10735.7074 1525.5604 0.0000 0.0000 1754.5906 -7454.2615 302.0182 -9208.8521 -7428.3800 300.6758 696.6270 757.3296 30026.2247 190.5262 258.0776
ENERGY: 900000 1.2265 3.4278 0.0000 0.0000 -10634.4177 1498.1996 0.0000 0.0000 1733.4145 -7398.1493 298.3731 -9131.5638 -7424.9277 300.9835 598.4208 614.1394 30232.4429 256.6985 312.0363
ENERGY: 1200000 0.5727 3.2254 0.0000 0.0000 -10579.7297 1364.4488 0.0000 0.0000 1723.4979 -7487.9848 296.6662 -9211.4827 -7425.4560 300.8582 -506.7653 -420.2609 29832.3579 155.4795 210.9561
ENERGY: 1500000 1.0895 1.4186 0.0000 0.0000 -10585.6269 1385.0543 0.0000 0.0000 1735.9143 -7462.1503 298.8034 -9198.0646 -7423.6475 300.5591 -415.4324 -362.3241 30067.9894 146.0800 201.4905
TCL: Running FEP window   7: Lambda1 0.3    Lambda2 0.35   [dLambda 0.04999999999999999]
TCL: Setting parameter firsttimestep to 0
TCL: Setting parameter alchLambda to 0.3
Info: NONBONDED TABLE R-SQUARED SPACING: 0.0625
Info: NONBONDED TABLE SIZE: 705 POINTS
TCL: Setting parameter alchLambda2 to 0.35
Info: NONBONDED TABLE R-SQUARED SPACING: 0.0625
Info: NONBONDED TABLE SIZE: 705 POINTS
TCL: Running for 1500000 steps
ETITLE: TS BOND ANGLE DIHED IMPRP ELECT VDW BOUNDARY MISC KINETIC TOTAL TEMP POTENTIAL TOTALAVG TEMPAVG PRESSURE GPRESSURE VOLUME PRESSAVG GPRESSAVG
ENERGY: 0 1.0895 1.4186 0.0000 0.0000 -10585.6276 1385.2513 0.0000 0.0000 1735.0122 -7462.8560 298.6481 -9197.8682 -7462.8560 298.6481 -443.2428 -361.3199 30067.9894 -443.2428 -361.3199
ENERGY: 300000 1.3135 2.4832 0.0000 0.0000 -10678.4483 1446.6977 0.0000 0.0000 1742.3483 -7485.6057 299.9109 -9227.9540 -7450.5636 301.4173 -73.0216 -7.4170 30298.7085 45.4155 119.1982
ENERGY: 600000 1.4230 0.4017 0.0000 0.0000 -10676.5862 1491.2190 0.0000 0.0000 1728.6488 -7454.8938 297.5528 -9183.5425 -7456.7871 298.9535 484.4401 522.6553 30058.2905 27.4709 92.1400
ENERGY: 900000 0.8491 3.0119 0.0000 0.0000 -10472.4580 1315.8391 0.0000 0.0000 1769.6366 -7383.1211 304.6081 -9152.7578 -7440.4482 299.4050 -868.9794 -773.8364 30320.0301 14.1424 76.8491
ENERGY: 1200000 2.8198 2.6452 0.0000 0.0000 -10511.4874 1379.7569 0.0000 0.0000 1698.3669 -7427.8987 292.3404 -9126.2656 -7443.7891 298.1533 -490.7907 -465.2643 30447.5605 -17.0104 42.5702
ENERGY: 1500000 1.7936 1.3416 0.0000 0.0000 -10531.7348 1415.7813 0.0000 0.0000 1713.2616 -7399.5567 294.9042 -9112.8183 -7442.7138 297.8564 80.7912 173.4909 29920.1900 -41.2241 19.4163
TCL: Running FEP window   8: Lambda1 0.35   Lambda2 0.39999999999999997 [dLambda 0.04999999999999999]
TCL: Setting parameter firsttimestep to 0
TCL: Setting parameter alchLambda to 0.35
Info: NONBONDED TABLE R-SQUARED SPACING: 0.0625
Info: NONBONDED TABLE SIZE: 705 POINTS
TCL: Setting parameter alchLambda2 to 0.39999999999999997
Info: NONBONDED TABLE R-SQUARED SPACING: 0.0625
Info: NONBONDED TABLE SIZE: 705 POINTS
TCL: Running for 1500000 steps
ETITLE: TS BOND ANGLE DIHED IMPRP ELECT VDW BOUNDARY MISC KINETIC TOTAL TEMP POTENTIAL TOTALAVG TEMPAVG PRESSURE GPRESSURE VOLUME PRESSAVG GPRESSAVG
ENERGY: 0 1.7936 1.3416 0.0000 0.0000 -10531.7342 1416.4678 0.0000 0.0000 1712.4067 -7399.7245 294.7570 -9112.1311 -7399.7245 294.7570 99.9954 180.3624 29920.1900 99.9954 180.3624
ENERGY: 300000 1.0503 0.7205 0.0000 0.0000 -10716.5501 1494.6043 0.0000 0.0000 1755.2708 -7464.9042 302.1353 -9220.1750 -7427.9757 298.3358 316.2590 363.9641 30122.4166 64.9575 124.8961
ENERGY: 600000 3.1455 0.7273 0.0000 0.0000 -10482.3641 1381.3662 0.0000 0.0000 1737.4631 -7359.6619 299.0700 -9097.1250 -7421.6382 297.9127 -158.2428 -111.6594 30331.1531 -121.5867 -54.0089
ENERGY: 900000 2.2637 1.8357 0.0000 0.0000 -10564.1597 1461.7987 0.0000 0.0000 1719.8043 -7378.4573 296.0304 -9098.2616 -7433.9495 297.2863 594.7221 671.0270 29841.6676 51.3931 120.1399
ENERGY: 1200000 2.8379 0.9805 0.0000 0.0000 -10625.7689 1436.8956 0.0000 0.0000 1792.9054 -7392.1495 308.6133 -9185.0549 -7428.1403 298.1102 102.7674 191.1142 30177.5642 59.9555 130.9633
ENERGY: 1500000 1.3837 2.6186 0.0000 0.0000 -10617.5146 1450.8805 0.0000 0.0000 1744.3000 -7418.3319 300.2468 -9162.6319 -7429.5669 298.7897 434.4746 476.9143 29678.8604 92.7679 161.2866
TCL: Running FEP window   9: Lambda1 0.39999999999999997 Lambda2 0.44999999999999996 [dLambda 0.04999999999999999]
TCL: Setting parameter firsttimestep to 0
TCL: Setting parameter alchLambda to 0.39999999999999997
Info: NONBONDED TABLE R-SQUARED SPACING: 0.0625
Info: NONBONDED TABLE SIZE: 705 POINTS
TCL: Setting parameter alchLambda2 to 0.44999999999999996
Info: NONBONDED TABLE R-SQUARED SPACING: 0.0625
Info: NONBONDED TABLE SIZE: 705 POINTS
TCL: Running for 1500000 steps
ETITLE: TS BOND ANGLE DIHED IMPRP ELECT VDW BOUNDARY MISC KINETIC TOTAL TEMP POTENTIAL TOTALAVG TEMPAVG PRESSURE GPRESSURE VOLUME PRESSAVG GPRESSAVG
ENERGY: 0 1.3837 2.6186 0.0000 0.0000 -10617.5159 1451.3303 0.0000 0.0000 1743.3987 -7418.7846 300.0917 -9162.1833 -7418.7846 300.0917 390.4261 481.7663 29678.8604 390.4261 481.7663
ENERGY: 300000 0.6658 1.5729 0.0000 0.0000 -10557.0966 1395.3451 0.0000 0.0000 1727.8961 -7431.6168 297.4232 -9159.5129 -7455.9565 299.7949 -447.5799 -352.1340 30571.7458 -337.8816 -282.8945
ENERGY: 600000 1.1941 2.3525 0.0000 0.0000 -10472.8869 1342.4071 0.0000 0.0000 1760.6195 -7366.3137 303.0559 -9126.9332 -7444.7435 300.6727 -730.9143 -657.7499 30554.9577 -308.0342 -243.3681
ENERGY: 900000 0.6631 0.8629 0.0000 0.0000 -10591.2603 1448.6643 0.0000 0.0000 1760.4907 -7380.5792 303.0338 -9141.0699 -7449.4119 299.4114 365.0448 447.2762 29955.4465 -142.4134 -69.6938
ENERGY: 1200000 0.2698 1.8837 0.0000 0.0000 -10503.8527 1359.7271 0.0000 0.0000 1727.7243 -7414.2479 297.3937 -9141.9722 -7448.5138 299.7588 -526.6477 -505.9618 30378.7811 -23.7129 45.3913
ENERGY: 1500000 1.4005 0.4967 0.0000 0.0000 -10678.4292 1488.8660 0.0000 0.0000 1759.2675 -7428.3984 302.8232 -9187.6660 -7452.7907 300.0510 291.9813 398.1215 30355.9562 -13.5267 60.4727
TCL: Running FEP window  10: Lambda1 0.44999999999999996 Lambda2 0.49999999999999994 [dLambda 0.04999999999999999]
TCL: Setting parameter firsttimestep to 0
TCL: Setting parameter alchLambda to 0.44999999999999996
Info: NONBONDED TABLE R-SQUARED SPACING: 0.0625
Info: NONBONDED TABLE SIZE: 705 POINTS
TCL: Setting parameter alchLambda2 to 0.49999999999999994
Info: NONBONDED TABLE R-SQUARED SPACING: 0.0625
Info: NONBONDED TABLE SIZE: 705 POINTS
TCL: Running for 1500000 steps
ETITLE: TS BOND ANGLE DIHED IMPRP ELECT VDW BOUNDARY MISC KINETIC TOTAL TEMP POTENTIAL TOTALAVG TEMPAVG PRESSURE GPRESSURE VOLUME PRESSAVG GPRESSAVG
ENERGY: 0 1.4005 0.4967 0.0000 0.0000 -10678.4280 1488.6123 0.0000 0.0000 1758.3919 -7429.5265 302.6725 -9187.9184 -7429.5265 302.6725 313.8214 399.1638 30355.9562 313.8214 399.1638
ENERGY: 300000 0.5568 6.0396 0.0000 0.0000 -10702.0432 1504.0155 0.0000 0.0000 1755.2893 -7436.1419 302.1384 -9191.4312 -7449.3265 300.7002 263.2924 303.7375 30479.1476 154.1951 213.2112
ENERGY: 600000 1.2622 1.7359 0.0000 0.0000 -10687.2940 1450.9247 0.0000 0.0000 1739.7299 -7493.6413 299.4602 -9233.3712 -7462.0178 301.0554 -172.8358 -139.8123 30465.3141 24.1891 79.5737
ENERGY: 900000 2.5200 0.5822 0.0000 0.0000 -10655.3800 1414.7700 0.0000 0.0000 1678.3467 -7559.1611 288.8943 -9237.5078 -7451.1781 300.2810 -320.8294 -340.5134 30111.8529 161.7524 218.8052
ENERGY: 1200000 1.2508 0.9095 0.0000 0.0000 -10583.9595 1431.2727 0.0000 0.0000 1780.9353 -7369.5911 306.5529 -9150.5264 -7444.4938 301.1491 114.9979 185.3520 30023.8467 116.5943 168.4397
ENERGY: 1500000 0.5971 1.9675 0.0000 0.0000 -10725.1264 1471.4909 0.0000 0.0000 1750.3423 -7500.7287 301.2869 -9251.0710 -7445.9236 300.3687 56.2352 156.7179 29930.0413 82.6141 140.9266
TCL: Running FEP window  11: Lambda1 0.49999999999999994 Lambda2 0.5499999999999999 [dLambda 0.04999999999999999]
TCL: Setting parameter firsttimestep to 0
TCL: Setting parameter alchLambda to 0.49999999999999994
Info: NONBONDED TABLE R-SQUARED SPACING: 0.0625
Info: NONBONDED TABLE SIZE: 705 POINTS
TCL: Setting parameter alchLambda2 to 0.5499999999999999
Info: NONBONDED TABLE R-SQUARED SPACING: 0.0625
Info: NONBONDED TABLE SIZE: 705 POINTS
TCL: Running for 1500000 steps
ETITLE: TS BOND ANGLE DIHED IMPRP ELECT VDW BOUNDARY MISC KINETIC TOTAL TEMP POTENTIAL TOTALAVG TEMPAVG PRESSURE GPRESSURE VOLUME PRESSAVG GPRESSAVG
ENERGY: 0 0.5971 1.9675 0.0000 0.0000 -10725.1270 1471.8415 0.0000 0.0000 1749.4969 -7501.2240 301.1414 -9250.7210 -7501.2240 301.1414 77.9836 161.7479 29930.0413 77.9836 161.7479
ENERGY: 300000 0.3541 1.0528 0.0000 0.0000 -10607.5472 1374.0767 0.0000 0.0000 1713.5302 -7518.5335 294.9504 -9232.0636 -7485.2535 299.5740 -929.3997 -828.4454 30583.9376 -381.8505 -296.1101
ENERGY: 600000 0.7145 1.4480 0.0000 0.0000 -10495.5022 1376.5649 0.0000 0.0000 1705.6173 -7411.1575 293.5884 -9116.7748 -7475.8932 298.9336 -517.9141 -438.7478 30416.3469 -90.9681 -9.7512
ENERGY: 900000 0.6948 0.7342 0.0000 0.0000 -10436.4245 1329.3866 0.0000 0.0000 1766.0946 -7339.5144 303.9984 -9105.6090 -7448.3577 299.7046 -673.1712 -609.4563 30504.7345 -194.1340 -122.9257
ENERGY: 1200000 3.2297 0.6365 0.0000 0.0000 -10639.5577 1415.0414 0.0000 0.0000 1761.1495 -7459.5007 303.1472 -9220.6502 -7461.2448 299.3011 -214.3776 -120.0016 30135.5259 -156.0787 -87.2134
ENERGY: 1500000 0.7066 0.8503 0.0000 0.0000 -10732.2864 1520.7150 0.0000 0.0000 1775.0326 -7434.9819 305.5369 -9210.0145 -7455.2336 299.7575 1185.4390 1266.9786 29118.9350 -101.9867 -35.8667
TCL: Running FEP window  12: Lambda1 0.5499999999999999 Lambda2 0.6    [dLambda 0.050000000000000044]
TCL: Setting parameter firsttimestep to 0
TCL: Setting parameter alchLambda to 0.5499999999999999
Info: NONBONDED TABLE R-SQUARED SPACING: 0.0625
Info: NONBONDED TABLE SIZE: 705 POINTS
TCL: Setting parameter alchLambda2 to 0.6
Info: NONBONDED TABLE R-SQUARED SPACING: 0.0625
Info: NONBONDED TABLE SIZE: 705 POINTS
TCL: Running for 1500000 steps
ETITLE: TS BOND ANGLE DIHED IMPRP ELECT VDW BOUNDARY MISC KINETIC TOTAL TEMP POTENTIAL TOTALAVG TEMPAVG PRESSURE GPRESSURE VOLUME PRESSAVG GPRESSAVG
ENERGY: 0 0.7066 0.8503 0.0000 0.0000 -10732.2858 1522.5597 0.0000 0.0000 1774.1483 -7434.0209 305.3847 -9208.1692 -7434.0209 305.3847 1218.2618 1286.2586 29118.9350 1218.2618 1286.2586
ENERGY: 300000 2.8891 1.6777 0.0000 0.0000 -10598.0668 1411.4239 0.0000 0.0000 1773.6921 -7408.3840 305.3061 -9182.0761 -7432.6200 303.8879 -144.6750 -137.6005 30260.2515 105.5024 128.1738
ENERGY: 600000 1.2472 2.4294 0.0000 0.0000 -10765.5585 1497.2416 0.0000 0.0000 1683.2244 -7581.4159 289.7339 -9264.6403 -7467.1697 300.0970 279.7025 297.7529 30241.8660 28.6905 66.9654
ENERGY: 900000 0.2794 0.8438 0.0000 0.0000 -10533.3063 1407.5215 0.0000 0.0000 1780.3606 -7344.3010 306.4540 -9124.6617 -7439.5894 301.9589 35.8381 60.3740 30096.5898 69.4919 102.9881
ENERGY: 1200000 3.5831 1.0196 0.0000 0.0000 -10648.5617 1489.9011 0.0000 0.0000 1766.3957 -7387.6622 304.0502 -9154.0579 -7441.3036 301.1291 742.4463 813.5450 29872.5806 98.4586 138.5007
ENERGY: 1500000 1.6375 0.7373 0.0000 0.0000 -10532.6543 1365.0390 0.0000 0.0000 1756.0348 -7409.2057 302.2668 -9165.2405 -7440.8566 301.2491 -354.7423 -349.0873 30017.4632 -7.6165 31.2493
TCL: Running FEP window  13: Lambda1 0.6    Lambda2 0.65   [dLambda 0.050000000000000044]
TCL: Setting parameter firsttimestep to 0
TCL: Setting parameter alchLambda to 0.6
Info: NONBONDED TABLE R-SQUARED SPACING: 0.0625
Info: NONBONDED TABLE SIZE: 705 POINTS
TCL: Setting parameter alchLambda2 to 0.65
Info: NONBONDED TABLE R-SQUARED SPACING: 0.0625
Info: NONBONDED TABLE SIZE: 705 POINTS
TCL: Running for 1500000 steps
ETITLE: TS BOND ANGLE DIHED IMPRP ELECT VDW BOUNDARY MISC KINETIC TOTAL TEMP POTENTIAL TOTALAVG TEMPAVG PRESSURE GPRESSURE VOLUME PRESSAVG GPRESSAVG
ENERGY: 0 1.6375 0.7373 0.0000 0.0000 -10532.6772 1364.7795 0.0000 0.0000 1755.1491 -7410.3739 302.1143 -9165.5229 -7410.3739 302.1143 -424.8279 -346.7336 30017.4632 -424.8279 -346.7336
ENERGY: 300000 0.2117 2.4858 0.0000 0.0000 -10746.6055 1491.8365 0.0000 0.0000 1745.5806 -7506.4908 300.4673 -9252.0714 -7475.4374 299.3201 406.9788 414.4581 29996.5499 -274.9762 -198.3581
ENERGY: 600000 3.3899 2.8987 0.0000 0.0000 -10759.5182 1461.3585 0.0000 0.0000 1791.5318 -7500.3392 308.3769 -9291.8710 -7447.9042 303.5829 200.7607 316.0565 29709.0314 -122.3865 -47.7246
ENERGY: 900000 1.3298 1.1522 0.0000 0.0000 -10640.2033 1462.6081 0.0000 0.0000 1723.2479 -7451.8653 296.6231 -9175.1132 -7444.6216 302.8889 459.6747 571.1451 29772.2083 -67.1041 12.1308
ENERGY: 1200000 2.5369 0.7924 0.0000 0.0000 -10584.3357 1409.7305 0.0000 0.0000 1714.4419 -7456.8340 295.1074 -9171.2759 -7431.8772 302.0225 -288.4047 -257.4327 30378.9403 -152.8302 -81.8588
ENERGY: 1500000 0.4998 1.5194 0.0000 0.0000 -10677.0095 1477.0832 0.0000 0.0000 1720.8092 -7477.0980 296.2034 -9197.9072 -7432.1702 301.5598 122.3835 215.6654 30372.2675 -162.2295 -90.6922
TCL: Running FEP window  14: Lambda1 0.65   Lambda2 0.7000000000000001 [dLambda 0.050000000000000044]
TCL: Setting parameter firsttimestep to 0
TCL: Setting parameter alchLambda to 0.65
Info: NONBONDED TABLE R-SQUARED SPACING: 0.0625
Info: NONBONDED TABLE SIZE: 705 POINTS
TCL: Setting parameter alchLambda2 to 0.7000000000000001
Info: NONBONDED TABLE R-SQUARED SPACING: 0.0625
Info: NONBONDED TABLE SIZE: 705 POINTS
TCL: Running for 1500000 steps
ETITLE: TS BOND ANGLE DIHED IMPRP ELECT VDW BOUNDARY MISC KINETIC TOTAL TEMP POTENTIAL TOTALAVG TEMPAVG PRESSURE GPRESSURE VOLUME PRESSAVG GPRESSAVG
ENERGY: 0 0.4998 1.5194 0.0000 0.0000 -10677.1830 1476.8806 0.0000 0.0000 1719.9435 -7478.3398 296.0544 -9198.2832 -7478.3398 296.0544 144.5603 220.4036 30372.2675 144.5603 220.4036
ENERGY: 300000 1.7209 1.9236 0.0000 0.0000 -10590.0258 1386.2721 0.0000 0.0000 1741.0261 -7459.0831 299.6833 -9200.1091 -7459.4598 298.7315 -651.0840 -577.7608 30599.2677 -172.4501 -100.2494
ENERGY: 600000 0.6070 0.5017 0.0000 0.0000 -10608.4121 1503.2520 0.0000 0.0000 1734.5071 -7369.5444 298.5612 -9104.0515 -7432.0026 298.9472 781.2025 868.8851 29905.8653 -22.1945 39.1941
ENERGY: 900000 1.3936 1.2536 0.0000 0.0000 -10548.4147 1338.6158 0.0000 0.0000 1741.3735 -7465.7781 299.7431 -9207.1516 -7433.3988 298.1554 -685.3950 -573.5716 29819.1247 -97.2502 -24.5784
ENERGY: 1200000 1.8296 1.8320 0.0000 0.0000 -10600.7955 1397.0187 0.0000 0.0000 1734.8377 -7465.2776 298.6181 -9200.1153 -7438.5187 298.5914 -165.4222 -102.4369 29530.5805 -106.0813 -40.4221
ENERGY: 1500000 0.8106 3.1584 0.0000 0.0000 -10537.6123 1433.2447 0.0000 0.0000 1714.2277 -7386.1710 295.0705 -9100.3987 -7433.2674 298.5437 -68.7423 1.6321 30680.1998 -120.6637 -61.7446
TCL: Running FEP window  15: Lambda1 0.7000000000000001 Lambda2 0.7500000000000001 [dLambda 0.050000000000000044]
TCL: Setting parameter firsttimestep to 0
TCL: Setting parameter alchLambda to 0.7000000000000001
Info: NONBONDED TABLE R-SQUARED SPACING: 0.0625
Info: NONBONDED TABLE SIZE: 705 POINTS
TCL: Setting parameter alchLambda2 to 0.7500000000000001
Info: NONBONDED TABLE R-SQUARED SPACING: 0.0625
Info: NONBONDED TABLE SIZE: 705 POINTS
TCL: Running for 1500000 steps
ETITLE: TS BOND ANGLE DIHED IMPRP ELECT VDW BOUNDARY MISC KINETIC TOTAL TEMP POTENTIAL TOTALAVG TEMPAVG PRESSURE GPRESSURE VOLUME PRESSAVG GPRESSAVG
ENERGY: 0 0.8106 3.1584 0.0000 0.0000 -10537.7976 1433.3362 0.0000 0.0000 1713.3408 -7387.1517 294.9178 -9100.4925 -7387.1517 294.9178 -82.0710 6.5409 30680.1998 -82.0710 6.5409
ENERGY: 300000 1.7126 2.0243 0.0000 0.0000 -10681.0033 1494.2055 0.0000 0.0000 1740.7942 -7442.2668 299.6434 -9183.0610 -7448.3419 295.5072 445.2476 513.5000 30049.3391 -136.7055 -59.8754
ENERGY: 600000 0.7523 0.5817 0.0000 0.0000 -10500.9829 1338.9150 0.0000 0.0000 1733.8450 -7426.8890 298.4472 -9160.7339 -7456.0807 296.2019 -727.8351 -674.2845 30117.7304 -269.0273 -207.2479
ENERGY: 900000 2.1339 1.7343 0.0000 0.0000 -10735.2052 1442.9368 0.0000 0.0000 1758.2404 -7530.1597 302.6464 -9288.4001 -7468.2008 296.3615 -65.7376 16.7207 29730.4128 -191.5935 -126.2718
ENERGY: 1200000 0.6925 0.6618 0.0000 0.0000 -10624.6611 1427.9370 0.0000 0.0000 1716.4741 -7478.8958 295.4572 -9195.3699 -7469.2939 295.9174 81.7471 68.4407 30161.3623 -127.8938 -66.6175
ENERGY: 1500000 1.1741 0.9427 0.0000 0.0000 -10545.2305 1365.7069 0.0000 0.0000 1764.2690 -7413.1378 303.6841 -9177.4068 -7469.8376 296.1852 -179.9327 -122.2123 29684.6632 -99.7107 -42.1125
TCL: Running FEP window  16: Lambda1 0.7500000000000001 Lambda2 0.8000000000000002 [dLambda 0.050000000000000044]
TCL: Setting parameter firsttimestep to 0
TCL: Setting parameter alchLambda to 0.7500000000000001
Info: NONBONDED TABLE R-SQUARED SPACING: 0.0625
Info: NONBONDED TABLE SIZE: 705 POINTS
TCL: Setting parameter alchLambda2 to 0.8000000000000002
Info: NONBONDED TABLE R-SQUARED SPACING: 0.0625
Info: NONBONDED TABLE SIZE: 705 POINTS
TCL: Running for 1500000 steps
ETITLE: TS BOND ANGLE DIHED IMPRP ELECT VDW BOUNDARY MISC KINETIC TOTAL TEMP POTENTIAL TOTALAVG TEMPAVG PRESSURE GPRESSURE VOLUME PRESSAVG GPRESSAVG
ENERGY: 0 1.1741 0.9427 0.0000 0.0000 -10545.2872 1366.1215 0.0000 0.0000 1763.4122 -7413.6367 303.5366 -9177.0489 -7413.6367 303.5366 -200.4343 -113.0404 29684.6632 -200.4343 -113.0404
ENERGY: 300000 0.5218 0.7652 0.0000 0.0000 -10607.5497 1438.2874 0.0000 0.0000 1742.0611 -7425.9141 299.8615 -9167.9752 -7379.9862 303.5509 370.0972 374.4167 29938.2520 166.4179 213.1157
ENERGY: 600000 0.1305 1.5325 0.0000 0.0000 -10624.7148 1408.0900 0.0000 0.0000 1757.1427 -7457.8190 302.4575 -9214.9617 -7392.6345 301.5928 -312.1044 -253.7327 30120.1293 -48.6374 7.8951
ENERGY: 900000 1.2970 0.7587 0.0000 0.0000 -10707.7889 1469.2337 0.0000 0.0000 1760.9614 -7475.5381 303.1148 -9236.4996 -7416.0586 301.0367 -68.9401 -2.6085 30494.3021 26.6806 88.6588
ENERGY: 1200000 2.2423 1.2964 0.0000 0.0000 -10736.7207 1471.2758 0.0000 0.0000 1731.0703 -7530.8360 297.9696 -9261.9063 -7430.3614 301.1329 75.4395 184.0968 29868.8133 32.1776 91.1537
ENERGY: 1500000 0.0877 1.0885 0.0000 0.0000 -10628.2501 1438.7001 0.0000 0.0000 1783.0976 -7405.2762 306.9251 -9188.3738 -7426.9314 301.2247 -17.6558 44.7225 30121.0980 42.6513 101.6254
TCL: Running FEP window  17: Lambda1 0.8000000000000002 Lambda2 0.8500000000000002 [dLambda 0.050000000000000044]
TCL: Setting parameter firsttimestep to 0
TCL: Setting parameter alchLambda to 0.8000000000000002
Info: NONBONDED TABLE R-SQUARED SPACING: 0.0625
Info: NONBONDED TABLE SIZE: 705 POINTS
TCL: Setting parameter alchLambda2 to 0.8500000000000002
Info: NONBONDED TABLE R-SQUARED SPACING: 0.0625
Info: NONBONDED TABLE SIZE: 705 POINTS
TCL: Running for 1500000 steps
ETITLE: TS BOND ANGLE DIHED IMPRP ELECT VDW BOUNDARY MISC KINETIC TOTAL TEMP POTENTIAL TOTALAVG TEMPAVG PRESSURE GPRESSURE VOLUME PRESSAVG GPRESSAVG
ENERGY: 0 0.0877 1.0885 0.0000 0.0000 -10628.2614 1438.5347 0.0000 0.0000 1782.1750 -7406.3755 306.7663 -9188.5505 -7406.3755 306.7663 -26.6732 50.4871 30121.0980 -26.6732 50.4871
ENERGY: 300000 1.4117 2.2084 0.0000 0.0000 -10733.6513 1486.5918 0.0000 0.0000 1723.2537 -7520.1858 296.6241 -9243.4394 -7496.6737 300.6729 410.0344 382.7072 29987.9461 -65.6363 -15.4549
ENERGY: 600000 0.1665 0.9444 0.0000 0.0000 -10494.5888 1445.6379 0.0000 0.0000 1783.1733 -7264.6667 306.9381 -9047.8400 -7441.1104 299.5907 257.4109 384.6281 30703.3085 -50.2852 17.7811
ENERGY: 900000 1.8100 0.3437 0.0000 0.0000 -10673.9331 1444.6182 0.0000 0.0000 1773.3487 -7453.8125 305.2470 -9227.1612 -7435.9290 300.3209 450.7514 539.5720 29667.3007 10.2404 75.5186
ENERGY: 1200000 0.8364 1.0515 0.0000 0.0000 -10688.8238 1439.0366 0.0000 0.0000 1765.0793 -7482.8199 303.8236 -9247.8992 -7439.4744 300.9671 190.4991 221.9003 29669.0767 78.6661 142.7821
ENERGY: 1500000 1.6236 1.7228 0.0000 0.0000 -10624.5379 1400.5873 0.0000 0.0000 1733.8722 -7486.7320 298.4519 -9220.6042 -7444.2035 300.1490 -231.8665 -102.9058 30047.6705 65.8604 137.6778
TCL: Running FEP window  18: Lambda1 0.8500000000000002 Lambda2 0.9000000000000002 [dLambda 0.050000000000000044]
TCL: Setting parameter firsttimestep to 0
TCL: Setting parameter alchLambda to 0.8500000000000002
Info: NONBONDED TABLE R-SQUARED SPACING: 0.0625
Info: NONBONDED TABLE SIZE: 705 POINTS
TCL: Setting parameter alchLambda2 to 0.9000000000000002
Info: NONBONDED TABLE R-SQUARED SPACING: 0.0625
Info: NONBONDED TABLE SIZE: 705 POINTS
TCL: Running for 1500000 steps
ETITLE: TS BOND ANGLE DIHED IMPRP ELECT VDW BOUNDARY MISC KINETIC TOTAL TEMP POTENTIAL TOTALAVG TEMPAVG PRESSURE GPRESSURE VOLUME PRESSAVG GPRESSAVG
ENERGY: 0 1.6236 1.7228 0.0000 0.0000 -10624.5894 1401.0955 0.0000 0.0000 1733.0161 -7487.1315 298.3046 -9220.1476 -7487.1315 298.3046 -189.5280 -89.8132 30047.6705 -189.5280 -89.8132
ENERGY: 300000 1.1709 0.9733 0.0000 0.0000 -10431.7181 1359.5019 0.0000 0.0000 1723.2684 -7346.8035 296.6267 -9070.0720 -7427.4468 296.8763 -364.7184 -279.3707 30211.3784 -360.7485 -281.3125
ENERGY: 600000 0.2969 1.8984 0.0000 0.0000 -10622.2717 1461.7465 0.0000 0.0000 1767.0050 -7391.3250 304.1551 -9158.3300 -7437.3726 300.5580 253.1792 344.6969 30089.5494 -169.4634 -101.5763
ENERGY: 900000 1.0704 0.6616 0.0000 0.0000 -10645.4607 1371.3304 0.0000 0.0000 1838.8434 -7433.5548 316.5206 -9272.3982 -7433.8876 302.2397 -700.1450 -634.6337 30178.7839 -261.5004 -192.0098
ENERGY: 1200000 0.5622 0.9645 0.0000 0.0000 -10764.0729 1491.8465 0.0000 0.0000 1743.4524 -7527.2473 300.1010 -9270.6997 -7445.4030 302.7100 261.6127 295.4356 30054.8741 -225.5606 -163.2642
ENERGY: 1500000 1.7830 1.2714 0.0000 0.0000 -10742.2775 1549.7496 0.0000 0.0000 1768.8273 -7420.6462 304.4687 -9189.4735 -7449.8155 302.1471 1204.7281 1262.6263 29952.4833 -143.8027 -81.1886
TCL: Running FEP window  19: Lambda1 0.9000000000000002 Lambda2 0.9500000000000003 [dLambda 0.050000000000000044]
TCL: Setting parameter firsttimestep to 0
TCL: Setting parameter alchLambda to 0.9000000000000002
Info: NONBONDED TABLE R-SQUARED SPACING: 0.0625
Info: NONBONDED TABLE SIZE: 705 POINTS
TCL: Setting parameter alchLambda2 to 0.9500000000000003
Info: NONBONDED TABLE R-SQUARED SPACING: 0.0625
Info: NONBONDED TABLE SIZE: 705 POINTS
TCL: Running for 1500000 steps
ETITLE: TS BOND ANGLE DIHED IMPRP ELECT VDW BOUNDARY MISC KINETIC TOTAL TEMP POTENTIAL TOTALAVG TEMPAVG PRESSURE GPRESSURE VOLUME PRESSAVG GPRESSAVG
ENERGY: 0 1.7830 1.2714 0.0000 0.0000 -10742.3147 1549.6074 0.0000 0.0000 1767.9574 -7421.6954 304.3190 -9189.6529 -7421.6954 304.3190 1186.9990 1267.2994 29952.4833 1186.9990 1267.2994
ENERGY: 300000 0.4634 2.4399 0.0000 0.0000 -10673.3030 1476.2323 0.0000 0.0000 1751.6136 -7442.5537 301.5058 -9194.1673 -7425.0944 305.2810 456.9520 449.3261 30118.3306 573.5641 625.0829
ENERGY: 600000 1.5123 0.7586 0.0000 0.0000 -10536.1319 1370.4629 0.0000 0.0000 1789.8901 -7373.5081 308.0943 -9163.3981 -7395.4480 306.3800 -502.7173 -440.0089 30660.1331 343.8834 392.3267
ENERGY: 900000 1.8946 2.4443 0.0000 0.0000 -10551.1985 1441.2368 0.0000 0.0000 1737.8716 -7367.7512 299.1403 -9105.6227 -7408.2717 304.7231 -22.9673 35.0826 30666.0590 265.6165 316.4281
ENERGY: 1200000 0.4442 1.7738 0.0000 0.0000 -10541.8158 1375.4859 0.0000 0.0000 1779.2996 -7384.8123 306.2713 -9164.1118 -7408.8021 304.1014 -207.4782 -127.7795 30116.0637 132.8537 189.1982
ENERGY: 1500000 2.3580 1.5293 0.0000 0.0000 -10568.1489 1367.2300 0.0000 0.0000 1753.3454 -7443.6862 301.8038 -9197.0316 -7406.2494 304.3602 -690.5510 -615.8042 30582.8834 104.8000 158.4462
TCL: Running FEP window  20: Lambda1 0.9500000000000003 Lambda2 1.0    [dLambda 0.04999999999999971]
TCL: Setting parameter firsttimestep to 0
TCL: Setting parameter alchLambda to 0.9500000000000003
Info: NONBONDED TABLE R-SQUARED SPACING: 0.0625
Info: NONBONDED TABLE SIZE: 705 POINTS
TCL: Setting parameter alchLambda2 to 1.0
Info: NONBONDED TABLE R-SQUARED SPACING: 0.0625
Info: NONBONDED TABLE SIZE: 705 POINTS
TCL: Running for 1500000 steps
ETITLE: TS BOND ANGLE DIHED IMPRP ELECT VDW BOUNDARY MISC KINETIC TOTAL TEMP POTENTIAL TOTALAVG TEMPAVG PRESSURE GPRESSURE VOLUME PRESSAVG GPRESSAVG
ENERGY: 0 2.3580 1.5293 0.0000 0.0000 -10568.2324 1367.5927 0.0000 0.0000 1752.4647 -7444.2878 301.6523 -9196.7525 -7444.2878 301.6523 -703.0089 -604.9981 30582.8834 -703.0089 -604.9981
ENERGY: 300000 1.1650 0.9480 0.0000 0.0000 -10489.1173 1402.3239 0.0000 0.0000 1727.4567 -7357.2237 297.3476 -9084.6804 -7453.0823 297.1462 118.3053 170.6000 30240.5326 -106.0169 -48.7858
ENERGY: 600000 0.6404 1.5952 0.0000 0.0000 -10715.8672 1467.2465 0.0000 0.0000 1691.1189 -7555.2662 291.0928 -9246.3851 -7478.9452 297.9869 166.4461 235.4801 29876.8471 -22.4654 34.7878
ENERGY: 900000 1.3355 1.0804 0.0000 0.0000 -10641.1597 1396.0777 0.0000 0.0000 1783.8561 -7458.8099 307.0557 -9242.6660 -7461.6781 299.0179 -368.3554 -357.1085 30173.7369 -52.0262 9.9229
ENERGY: 1200000 0.4623 2.2494 0.0000 0.0000 -10774.1687 1527.8478 0.0000 0.0000 1753.0043 -7490.6048 301.7451 -9243.6091 -7453.3886 299.3679 501.8644 534.1845 30259.1609 -115.7958 -60.3552
ENERGY: 1500000 2.1771 0.4647 0.0000 0.0000 -10558.6165 1403.5727 0.0000 0.0000 1703.7904 -7448.6115 293.2739 -9152.4020 -7453.0520 298.7678 -233.1769 -123.2489 30235.0665 -153.0991 -92.8100
TCL: Exiting due to exit command.
