Info: SIMULATION PARAMETERS:
Info: TIMESTEP               2
Info: NUMBER OF STEPS        0
Info: STEPS PER CYCLE        10
Info: PERIODIC CELL BASIS 1  31.4773 0 0
Info: PERIODIC CELL BASIS 2  0 30.4301 0
Info: PERIODIC CELL BASIS 3  0 0 31.3308
Info: PERIODIC CELL CENTER   0 0 0
Info: WRAPPING WATERS AROUND PERIODIC BOUNDARIES ON OUTPUT.
Info: WRAPPING ALL CLUSTERS AROUND PERIODIC BOUNDARIES ON OUTPUT.
Info: FIRST LDB TIMESTEP     50
Info: LAST LDB TIMESTEP     -1
Info: HOM BACKGROUND SCALING 1
Info: PME BACKGROUND SCALING 1
Info: MIN ATOMS PER PATCH    40
Info: EMPTY PATCH LOAD       40 ATOMS
Info: VELOCITY FILE          mobley_1838110_equil.vel
Info: CENTER OF MASS MOVING INITIALLY? NO
Info: DIELECTRIC             1
Info: EXCLUDE                SCALED ONE-FOUR
Info: 1-4 ELECTROSTATICS SCALED BY 0.833333
Info: MODIFIED 1-4 VDW PARAMETERS WILL BE USED
Info: DCD FILENAME           mobley_1838110_prod.dcd
Info: DCD FREQUENCY          100000
Info: DCD FIRST STEP         100000
Info: DCD FILE WILL CONTAIN UNIT CELL DATA
Info: XST FILENAME           mobley_1838110_prod.xst
Info: XST FREQUENCY          100000
Info: NO VELOCITY DCD OUTPUT
Info: NO FORCE DCD OUTPUT
Info: OUTPUT FILENAME        mobley_1838110_prod
Info: BINARY OUTPUT FILES WILL BE USED
Info: RESTART FILENAME       mobley_1838110_prod.restart
Info: RESTART FREQUENCY      100000
Info: BINARY RESTART FILES WILL BE USED
Info: CUTOFF                 9
Info: PAIRLIST DISTANCE      11
Info: PAIRLIST SHRINK RATE   0.01
Info: PAIRLIST GROW RATE     0.01
Info: PAIRLIST TRIGGER       0.3
Info: PAIRLISTS PER CYCLE    2
Info: PAIRLISTS ENABLED
Info: MARGIN                 2
Info: HYDROGEN GROUP CUTOFF  2.5
Info: PATCH DIMENSION        15.5
Info: ENERGY OUTPUT STEPS    100000
Info: ENERGY EVALUATION STEPS    100000
Info: OUTPUT ENERGY PRECISION 4
Info: CROSSTERM ENERGY INCLUDED IN DIHEDRAL
Info: TIMING OUTPUT STEPS    1000000
Info: PRESSURE OUTPUT STEPS  100000
Info: ALCHEMICAL FEP ON
Info: FEP CURRENT LAMBDA VALUE     0
Info: FEP COMPARISON LAMBDA VALUE  0.05
Info: FEP INTRA-ALCHEMICAL NON-BONDED INTERACTIONS WILL BE RETAINED
Info: FEP INTRA-ALCHEMICAL BONDED INTERACTIONS WILL BE RETAINED
Info: FEP VDW SHIFTING COEFFICIENT 5
Info: FEP ELEC. ACTIVE FOR ANNIHILATED PARTICLES BETWEEN LAMBDA = 0 AND LAMBDA = 0.5
Info: FEP ELEC. ACTIVE FOR EXNIHILATED PARTICLES BETWEEN LAMBDA = 0.5 AND LAMBDA = 1
Info: FEP VDW ACTIVE FOR ANNIHILATED PARTICLES BETWEEN LAMBDA = 0 AND LAMBDA = 1
Info: FEP VDW ACTIVE FOR EXNIHILATED PARTICLES BETWEEN LAMBDA = 0 AND LAMBDA = 1
Info: FEP BOND ACTIVE FOR ANNIHILATED PARTICLES BETWEEN LAMBDA = 1 AND LAMBDA = 1
Info: FEP BOND ACTIVE FOR EXNIHILATED PARTICLES BETWEEN LAMBDA = 0 AND LAMBDA = 0
Info: LANGEVIN DYNAMICS ACTIVE
Info: LANGEVIN TEMPERATURE   300
Info: LANGEVIN USING BBK INTEGRATOR
Info: LANGEVIN DAMPING COEFFICIENT IS 1 INVERSE PS
Info: LANGEVIN DYNAMICS APPLIED TO HYDROGENS
Info: LANGEVIN PISTON PRESSURE CONTROL ACTIVE
Info:        TARGET PRESSURE IS 1.01325 BAR
Info:     OSCILLATION PERIOD IS 50 FS
Info:             DECAY TIME IS 25 FS
Info:     PISTON TEMPERATURE IS 300 K
Info:       PRESSURE CONTROL IS GROUP-BASED
Info:    INITIAL STRAIN RATE IS 0.000340446 0.000340446 0.000340446
Info:       CELL FLUCTUATION IS ISOTROPIC
Info: PARTICLE MESH EWALD (PME) ACTIVE
Info: PME TOLERANCE               1e-06
Info: PME EWALD COEFFICIENT       0.348832
Info: PME INTERPOLATION ORDER     4
Info: PME GRID DIMENSIONS         32 32 32
Info: PME MAXIMUM GRID SPACING    1
Info: PME CALCULATION WILL BE PERFORMED ON GPU
Info: FULL ELECTROSTATIC EVALUATION FREQUENCY      2
Info: USING VERLET I (r-RESPA) MTS SCHEME.
Info: C1 SPLITTING OF LONG RANGE ELECTROSTATICS
Info: PLACING ATOMS IN PATCHES BY HYDROGEN GROUPS
Info: RIGID BONDS TO HYDROGEN : ALL
Info:         ERROR TOLERANCE : 1e-08
Info:          MAX ITERATIONS : 100
Info: RIGID WATER USING SETTLE ALGORITHM
Info: RANDOM NUMBER SEED     1742416328
Info: USE HYDROGEN BONDS?    NO
Info: Using AMBER format force field!
Info: AMBER PARM FILE        mobley_1838110.prmtop
Info: COORDINATE PDB         mobley_1838110.pdb
Info: Exclusions will be read from PARM file!
Info: SCNB (VDW SCALING)     2
Info: USING ARITHMETIC MEAN TO COMBINE L-J SIGMA PARAMETERS
Info: BINARY COORDINATES     mobley_1838110_equil.coor
Info: SUMMARY OF PARAMETERS:
Info: 5 BONDS
Info: 5 ANGLES
Info:   5 HARMONIC
Info:   0 COSINE-BASED
Info: 3 DIHEDRAL
Info: 0 IMPROPER
Info: 0 CROSSTERM
Info: 0 VDW
Info: 15 VDW_PAIRS
Info: 0 NBTHOLE_PAIRS
Info: To read alchdata from file: mobley_1838110.pdb
Info: To read alchflag data from column: 5
Info: STRUCTURE SUMMARY:
Info: 2966 ATOMS
Info: 2965 BONDS
Info: 12 ANGLES
Info: 9 DIHEDRALS
Info: 0 IMPROPERS
Info: 0 CROSSTERMS
Info: 2986 EXCLUSIONS
Info: 2958 RIGID BONDS
Info: ALCH: 0 ATOMS TO DISAPPEAR IN FINAL STATE
Info: ALCH: 8 ATOMS TO APPEAR IN FINAL STATE
Info: 5940 DEGREES OF FREEDOM
Info: 994 HYDROGEN GROUPS
Info: 3 ATOMS IN LARGEST HYDROGEN GROUP
Info: 994 MIGRATION GROUPS
Info: 3 ATOMS IN LARGEST MIGRATION GROUP
Info: TOTAL MASS = 17951.1 amu
Info: TOTAL CHARGE = 0.000100017 e
Info: MASS DENSITY = 0.9933 g/cm^3
Info: ATOM DENSITY = 0.0988326 atoms/A^3
Info: ADDED 0 IMPLICIT EXCLUSIONS
Info: NONBONDED TABLE R-SQUARED SPACING: 0.0625
Info: NONBONDED TABLE SIZE: 705 POINTS
Info: REMOVING COM VELOCITY -0.208158 -0.280868 -0.113581
Info: Use 3D box decompostion in PME FFT.
Info: Updated CUDA force table with 4096 elements.
Info: Updated CUDA LJ table with 5 x 5 elements.
Info: Found 11 unique exclusion lists needing 16 bytes
TCL: Running for 1500000 steps
ETITLE: TS BOND ANGLE DIHED IMPRP ELECT VDW BOUNDARY MISC KINETIC TOTAL TEMP POTENTIAL TOTALAVG TEMPAVG PRESSURE GPRESSURE VOLUME PRESSAVG GPRESSAVG
ENERGY: 0 1.4908 3.7932 1.8956 0.0000 -10820.5281 1409.9312 0.0000 0.0000 1730.5667 -7672.8506 293.2191 -9403.4173 -7672.8506 293.2191 -380.4574 -288.7771 30010.3536 -380.4574 -288.7771
ENERGY: 300000 3.6216 3.6100 2.3248 0.0000 -10540.0092 1301.0754 0.0000 0.0000 1737.0241 -7492.3533 294.3132 -9229.3774 -7580.8052 296.2310 -1121.7615 -1031.3059 30427.6092 -361.0712 -290.4497
ENERGY: 600000 1.7662 5.3172 2.0637 0.0000 -10705.8513 1356.6272 0.0000 0.0000 1788.0688 -7552.0082 302.9620 -9340.0770 -7565.5541 297.0477 -719.1776 -660.7638 30318.6262 -374.0088 -312.1691
ENERGY: 900000 1.4961 4.0217 2.2471 0.0000 -10655.4424 1411.3235 0.0000 0.0000 1767.2986 -7469.0553 299.4428 -9236.3539 -7548.0626 298.4549 -210.5181 -140.4240 30446.8552 -59.3139 -4.2512
ENERGY: 1200000 2.1300 2.0165 1.6707 0.0000 -10752.1225 1435.5159 0.0000 0.0000 1779.8862 -7530.9032 301.5756 -9310.7893 -7525.0092 300.1186 27.8516 100.6594 30524.2446 -69.4333 -14.7350
ENERGY: 1500000 1.6360 6.0579 1.8798 0.0000 -10625.0420 1333.9822 0.0000 0.0000 1796.9121 -7484.5740 304.4604 -9281.4861 -7521.4924 300.4851 -866.6314 -814.7473 30584.3934 -153.8998 -99.1649
TCL: Running FEP window   2: Lambda1 0.05   Lambda2 0.1    [dLambda 0.05  ]
TCL: Setting parameter firsttimestep to 0
TCL: Setting parameter alchLambda to 0.05
Info: NONBONDED TABLE R-SQUARED SPACING: 0.0625
Info: NONBONDED TABLE SIZE: 705 POINTS
TCL: Setting parameter alchLambda2 to 0.1
Info: NONBONDED TABLE R-SQUARED SPACING: 0.0625
Info: NONBONDED TABLE SIZE: 705 POINTS
TCL: Running for 1500000 steps
ETITLE: TS BOND ANGLE DIHED IMPRP ELECT VDW BOUNDARY MISC KINETIC TOTAL TEMP POTENTIAL TOTALAVG TEMPAVG PRESSURE GPRESSURE VOLUME PRESSAVG GPRESSAVG
ENERGY: 0 1.6360 6.0579 1.8798 0.0000 -10625.0411 1337.1276 0.0000 0.0000 1796.0003 -7482.3396 304.3059 -9278.3398 -7482.3396 304.3059 -883.9072 -805.6586 30584.3934 -883.9072 -805.6586
ENERGY: 300000 1.6928 1.1539 1.9521 0.0000 -10568.7300 1339.8069 0.0000 0.0000 1777.8112 -7446.3131 301.2240 -9224.1244 -7461.4976 303.2216 -882.5325 -787.6548 31073.8399 -470.0251 -371.4105
ENERGY: 600000 4.4991 3.0919 2.2149 0.0000 -10683.5425 1375.5682 0.0000 0.0000 1745.8895 -7552.2789 295.8153 -9298.1684 -7484.9633 301.6826 -494.7745 -485.1318 30289.5778 -388.5299 -316.4838
ENERGY: 900000 0.8047 3.1477 1.8353 0.0000 -10844.0309 1532.3850 0.0000 0.0000 1758.3506 -7547.5075 297.9267 -9305.8581 -7505.0316 298.6872 770.4056 774.3440 30198.7969 -315.8925 -246.1232
ENERGY: 1200000 3.3005 3.7668 3.1886 0.0000 -10880.0862 1582.3407 0.0000 0.0000 1728.7323 -7558.7575 292.9083 -9287.4897 -7513.2481 298.6860 911.2457 1035.2846 30290.5835 -156.7855 -81.5853
ENERGY: 1500000 3.0427 3.7425 2.3626 0.0000 -10595.9025 1336.7199 0.0000 0.0000 1766.8644 -7483.1704 299.3692 -9250.0347 -7510.3721 298.9867 -1212.8528 -1146.6095 31092.3250 -162.2826 -92.6925
TCL: Running FEP window   3: Lambda1 0.1    Lambda2 0.15000000000000002 [dLambda 0.05000000000000002]
TCL: Setting parameter firsttimestep to 0
TCL: Setting parameter alchLambda to 0.1
Info: NONBONDED TABLE R-SQUARED SPACING: 0.0625
Info: NONBONDED TABLE SIZE: 705 POINTS
TCL: Setting parameter alchLambda2 to 0.15000000000000002
Info: NONBONDED TABLE R-SQUARED SPACING: 0.0625
Info: NONBONDED TABLE SIZE: 705 POINTS
TCL: Running for 1500000 steps
ETITLE: TS BOND ANGLE DIHED IMPRP ELECT VDW BOUNDARY MISC KINETIC TOTAL TEMP POTENTIAL TOTALAVG TEMPAVG PRESSURE GPRESSURE VOLUME PRESSAVG GPRESSAVG
ENERGY: 0 3.0427 3.7425 2.3626 0.0000 -10595.9023 1340.0223 0.0000 0.0000 1765.9924 -7480.7398 299.2215 -9246.7322 -7480.7398 299.2215 -1220.2157 -1136.4529 31092.3250 -1220.2157 -1136.4529
ENERGY: 300000 3.4044 4.3431 1.7170 0.0000 -10910.6852 1574.0242 0.0000 0.0000 1797.1592 -7530.0372 304.5022 -9327.1964 -7521.7797 300.0525 1000.2039 1129.8089 29947.2695 -140.2073 -79.3723
ENERGY: 600000 4.2633 2.3703 1.7700 0.0000 -10747.3117 1478.1784 0.0000 0.0000 1756.3765 -7504.3533 297.5922 -9260.7298 -7502.6944 300.6668 220.6528 213.5055 30434.8079 -60.8838 -5.0019
ENERGY: 900000 4.2203 2.5314 2.1279 0.0000 -10641.2538 1365.8018 0.0000 0.0000 1760.5793 -7505.9931 298.3043 -9266.5724 -7518.9649 299.8339 -788.7545 -619.9183 30664.3799 -86.3056 -22.1002
ENERGY: 1200000 3.4890 2.4252 2.0744 0.0000 -10790.1947 1444.3994 0.0000 0.0000 1772.7378 -7565.0688 300.3644 -9337.8066 -7518.5266 299.7098 190.0845 134.5936 29887.6188 -66.9708 -14.0955
ENERGY: 1500000 3.8190 4.1170 2.8078 0.0000 -10748.2565 1469.0207 0.0000 0.0000 1688.3528 -7580.1392 286.0666 -9268.4920 -7522.6404 298.8229 -22.4005 17.7062 30503.7917 -139.3092 -85.5963
TCL: Running FEP window   4: Lambda1 0.15000000000000002 Lambda2 0.2    [dLambda 0.04999999999999999]
TCL: Setting parameter firsttimestep to 0
TCL: Setting parameter alchLambda to 0.15000000000000002
Info: NONBONDED TABLE R-SQUARED SPACING: 0.0625
Info: NONBONDED TABLE SIZE: 705 POINTS
TCL: Setting parameter alchLambda2 to 0.2
Info: NONBONDED TABLE R-SQUARED SPACING: 0.0625
Info: NONBONDED TABLE SIZE: 705 POINTS
TCL: Running for 1500000 steps
ETITLE: TS BOND ANGLE DIHED IMPRP ELECT VDW BOUNDARY MISC KINETIC TOTAL TEMP POTENTIAL TOTALAVG TEMPAVG PRESSURE GPRESSURE VOLUME PRESSAVG GPRESSAVG
ENERGY: 0 3.8190 4.1170 2.8078 0.0000 -10748.2560 1468.7748 0.0000 0.0000 1687.4736 -7581.2638 285.9176 -9268.7373 -7581.2638 285.9176 -69.3904 17.3949 30503.7917 -69.3904 17.3949
ENERGY: 300000 2.3683 2.5452 1.9933 0.0000 -10683.0317 1432.0279 0.0000 0.0000 1728.9156 -7515.1815 292.9394 -9244.0970 -7557.5995 290.4541 -372.2357 -340.5415 31147.0266 96.2823 134.2072
ENERGY: 600000 0.8309 4.1005 1.7339 0.0000 -10750.8606 1385.6101 0.0000 0.0000 1729.3150 -7629.2702 293.0070 -9358.5852 -7563.9243 294.0688 -869.4314 -857.3284 30711.8007 -146.2120 -109.8168
ENERGY: 900000 2.8980 1.5001 1.9805 0.0000 -10706.3165 1417.0603 0.0000 0.0000 1782.6862 -7500.1914 302.0500 -9282.8777 -7558.7461 295.6002 -288.8788 -245.9372 30636.7464 -74.2834 -30.4809
ENERGY: 1200000 0.8718 2.5291 2.0042 0.0000 -10841.1874 1510.7233 0.0000 0.0000 1751.6140 -7573.4449 296.7853 -9325.0589 -7542.4978 297.5513 281.5908 366.9111 30700.6723 -0.6874 38.8683
ENERGY: 1500000 1.3694 2.1854 2.3819 0.0000 -10681.4921 1435.8256 0.0000 0.0000 1783.2139 -7456.5159 302.1394 -9239.7298 -7544.2228 297.9605 -184.5801 -68.3590 30703.3000 -13.8857 31.9069
TCL: Running FEP window   5: Lambda1 0.2    Lambda2 0.25   [dLambda 0.04999999999999999]
TCL: Setting parameter firsttimestep to 0
TCL: Setting parameter alchLambda to 0.2
Info: NONBONDED TABLE R-SQUARED SPACING: 0.0625
Info: NONBONDED TABLE SIZE: 705 POINTS
TCL: Setting parameter alchLambda2 to 0.25
Info: NONBONDED TABLE R-SQUARED SPACING: 0.0625
Info: NONBONDED TABLE SIZE: 705 POINTS
TCL: Running for 1500000 steps
ETITLE: TS BOND ANGLE DIHED IMPRP ELECT VDW BOUNDARY MISC KINETIC TOTAL TEMP POTENTIAL TOTALAVG TEMPAVG PRESSURE GPRESSURE VOLUME PRESSAVG GPRESSAVG
ENERGY: 0 1.3694 2.1854 2.3819 0.0000 -10681.4923 1436.2943 0.0000 0.0000 1782.3023 -7456.9590 301.9850 -9239.2613 -7456.9590 301.9850 -148.4539 -63.5756 30703.3000 -148.4539 -63.5756
ENERGY: 300000 1.4003 4.0026 2.2367 0.0000 -10664.0198 1437.7194 0.0000 0.0000 1764.8949 -7453.7659 299.0355 -9218.6608 -7520.7825 299.3251 36.3520 30.5336 30914.1469 -132.9853 -90.5274
ENERGY: 600000 1.2025 3.8652 1.6017 0.0000 -10818.5743 1535.7307 0.0000 0.0000 1812.0650 -7464.1092 307.0278 -9276.1742 -7508.4643 299.3927 657.6943 761.5202 30510.1631 -3.7314 49.2063
ENERGY: 900000 3.1713 3.8225 1.9183 0.0000 -10616.2296 1362.5136 0.0000 0.0000 1808.6487 -7436.1552 306.4490 -9244.8039 -7512.2631 299.1310 -811.1569 -687.3212 30755.0190 -177.2288 -114.3240
ENERGY: 1200000 2.5876 3.5288 2.5796 0.0000 -10689.3401 1370.9494 0.0000 0.0000 1750.2725 -7559.4222 296.5580 -9309.6947 -7520.5829 298.3659 -595.5020 -614.7284 30479.4064 -143.7580 -94.4637
ENERGY: 1500000 2.2487 2.8892 1.6645 0.0000 -10786.5830 1447.3465 0.0000 0.0000 1766.0977 -7566.3364 299.2393 -9332.4341 -7525.5818 298.1956 -213.4493 -137.4255 30630.5600 -144.0126 -89.3409
TCL: Running FEP window   6: Lambda1 0.25   Lambda2 0.3    [dLambda 0.04999999999999999]
TCL: Setting parameter firsttimestep to 0
TCL: Setting parameter alchLambda to 0.25
Info: NONBONDED TABLE R-SQUARED SPACING: 0.0625
Info: NONBONDED TABLE SIZE: 705 POINTS
TCL: Setting parameter alchLambda2 to 0.3
Info: NONBONDED TABLE R-SQUARED SPACING: 0.0625
Info: NONBONDED TABLE SIZE: 705 POINTS
TCL: Running for 1500000 steps
ETITLE: TS BOND ANGLE DIHED IMPRP ELECT VDW BOUNDARY MISC KINETIC TOTAL TEMP POTENTIAL TOTALAVG TEMPAVG PRESSURE GPRESSURE VOLUME PRESSAVG GPRESSAVG
ENERGY: 0 2.2487 2.8892 1.6645 0.0000 -10786.5829 1450.2813 0.0000 0.0000 1765.2108 -7564.2885 299.0890 -9329.4992 -7564.2885 299.0890 -225.6282 -118.9415 30630.5600 -225.6282 -118.9415
ENERGY: 300000 1.0093 2.5324 2.7817 0.0000 -10703.4787 1516.4296 0.0000 0.0000 1800.9129 -7379.8128 305.1383 -9180.7257 -7479.3229 301.3754 710.5242 749.0836 30871.2391 -25.5384 26.5524
ENERGY: 600000 1.9398 3.0614 1.9835 0.0000 -10732.9965 1443.6020 0.0000 0.0000 1721.6051 -7560.8047 291.7007 -9282.4098 -7492.5194 298.9137 -57.3314 38.2831 30447.3614 -6.5085 51.0684
ENERGY: 900000 2.1288 2.2573 1.9348 0.0000 -10804.3268 1445.8240 0.0000 0.0000 1787.4539 -7564.7280 302.8578 -9352.1819 -7511.3611 299.6190 -111.4274 -19.4118 30142.1235 39.0443 107.5425
ENERGY: 1200000 1.8892 4.1514 2.1857 0.0000 -10838.9238 1492.8776 0.0000 0.0000 1759.2942 -7578.5257 298.0866 -9337.8199 -7528.3208 298.7012 175.8826 241.1406 30269.2871 37.1925 97.8904
ENERGY: 1500000 0.7722 1.7414 2.2048 0.0000 -10889.2990 1564.3052 0.0000 0.0000 1794.0070 -7526.2684 303.9681 -9320.2754 -7529.9725 298.6088 823.6164 861.1117 30499.7385 65.0198 121.9561
TCL: Running FEP window   7: Lambda1 0.3    Lambda2 0.35   [dLambda 0.04999999999999999]
TCL: Setting parameter firsttimestep to 0
TCL: Setting parameter alchLambda to 0.3
Info: NONBONDED TABLE R-SQUARED SPACING: 0.0625
Info: NONBONDED TABLE SIZE: 705 POINTS
TCL: Setting parameter alchLambda2 to 0.35
Info: NONBONDED TABLE R-SQUARED SPACING: 0.0625
Info: NONBONDED TABLE SIZE: 705 POINTS
TCL: Running for 1500000 steps
ETITLE: TS BOND ANGLE DIHED IMPRP ELECT VDW BOUNDARY MISC KINETIC TOTAL TEMP POTENTIAL TOTALAVG TEMPAVG PRESSURE GPRESSURE VOLUME PRESSAVG GPRESSAVG
ENERGY: 0 0.7722 1.7414 2.2048 0.0000 -10889.2997 1565.4597 0.0000 0.0000 1793.1792 -7525.9424 303.8279 -9319.1216 -7525.9424 303.8279 792.7947 872.3051 30499.7385 792.7947 872.3051
ENERGY: 300000 2.1065 2.1271 1.9682 0.0000 -10656.4903 1401.5737 0.0000 0.0000 1776.2120 -7472.5028 300.9530 -9248.7147 -7535.0566 302.0638 -299.8506 -183.1004 30702.2948 163.1751 247.8619
ENERGY: 600000 4.5467 4.2426 2.3891 0.0000 -10655.2403 1411.4619 0.0000 0.0000 1732.3881 -7500.2119 293.5277 -9232.6000 -7524.2377 300.8406 -415.2281 -363.1209 30897.3015 27.6869 100.2942
ENERGY: 900000 4.7963 3.1164 2.1589 0.0000 -10730.1550 1402.5129 0.0000 0.0000 1790.0385 -7527.5320 303.2957 -9317.5705 -7524.0115 300.0958 -448.2117 -406.1205 30555.2518 23.2063 82.9605
ENERGY: 1200000 2.5135 4.9181 2.2435 0.0000 -10816.2310 1492.1080 0.0000 0.0000 1772.6564 -7541.7915 300.3506 -9314.4478 -7532.0516 300.3676 180.5021 238.4745 30385.8389 15.2404 72.0433
ENERGY: 1500000 1.4765 2.2297 1.9036 0.0000 -10665.0804 1428.7517 0.0000 0.0000 1772.9164 -7457.8025 300.3946 -9230.7189 -7521.0783 301.0905 26.6196 2.8828 30792.8494 79.9343 130.9607
TCL: Running FEP window   8: Lambda1 0.35   Lambda2 0.39999999999999997 [dLambda 0.04999999999999999]
TCL: Setting parameter firsttimestep to 0
TCL: Setting parameter alchLambda to 0.35
Info: NONBONDED TABLE R-SQUARED SPACING: 0.0625
Info: NONBONDED TABLE SIZE: 705 POINTS
TCL: Setting parameter alchLambda2 to 0.39999999999999997
Info: NONBONDED TABLE R-SQUARED SPACING: 0.0625
Info: NONBONDED TABLE SIZE: 705 POINTS
TCL: Running for 1500000 steps
ETITLE: TS BOND ANGLE DIHED IMPRP ELECT VDW BOUNDARY MISC KINETIC TOTAL TEMP POTENTIAL TOTALAVG TEMPAVG PRESSURE GPRESSURE VOLUME PRESSAVG GPRESSAVG
ENERGY: 0 1.4765 2.2297 1.9036 0.0000 -10665.0804 1428.6450 0.0000 0.0000 1772.0345 -7458.7911 300.2452 -9230.8257 -7458.7911 300.2452 -64.3705 7.5117 30792.8494 -64.3705 7.5117
ENERGY: 300000 1.3961 1.8608 2.0475 0.0000 -10656.2755 1351.6406 0.0000 0.0000 1781.2265 -7518.1041 301.8027 -9299.3306 -7506.1401 303.5722 -665.2237 -619.1367 30676.4618 -133.4112 -63.8616
ENERGY: 600000 3.2198 2.5717 2.3198 0.0000 -10749.6393 1387.6939 0.0000 0.0000 1750.7265 -7603.1076 296.6349 -9353.8341 -7522.0046 302.3182 -608.9604 -487.0733 30353.3529 -375.2759 -289.7480
ENERGY: 900000 0.9497 2.6588 2.2049 0.0000 -10666.6305 1379.0973 0.0000 0.0000 1772.8073 -7508.9125 300.3762 -9281.7198 -7533.5117 301.2464 -413.3495 -304.1212 30580.3945 -334.8577 -250.2145
ENERGY: 1200000 1.6132 1.7540 2.0948 0.0000 -10701.3628 1458.7065 0.0000 0.0000 1762.4859 -7474.7085 298.6274 -9237.1944 -7537.2986 299.9859 96.2533 184.9472 30646.3696 -319.6516 -233.9091
ENERGY: 1500000 1.8523 2.2352 2.0035 0.0000 -10932.2794 1504.0688 0.0000 0.0000 1796.6176 -7625.5020 304.4105 -9422.1196 -7544.5653 300.3210 31.2910 152.8290 30384.2719 -319.1022 -233.6490
TCL: Running FEP window   9: Lambda1 0.39999999999999997 Lambda2 0.44999999999999996 [dLambda 0.04999999999999999]
TCL: Setting parameter firsttimestep to 0
TCL: Setting parameter alchLambda to 0.39999999999999997
Info: NONBONDED TABLE R-SQUARED SPACING: 0.0625
Info: NONBONDED TABLE SIZE: 705 POINTS
TCL: Setting parameter alchLambda2 to 0.44999999999999996
Info: NONBONDED TABLE R-SQUARED SPACING: 0.0625
Info: NONBONDED TABLE SIZE: 705 POINTS
TCL: Running for 1500000 steps
ETITLE: TS BOND ANGLE DIHED IMPRP ELECT VDW BOUNDARY MISC KINETIC TOTAL TEMP POTENTIAL TOTALAVG TEMPAVG PRESSURE GPRESSURE VOLUME PRESSAVG GPRESSAVG
ENERGY: 0 1.8523 2.2352 2.0035 0.0000 -10932.2800 1503.6254 0.0000 0.0000 1795.7266 -7626.8370 304.2595 -9422.5636 -7626.8370 304.2595 64.4171 157.2337 30384.2719 64.4171 157.2337
ENERGY: 300000 1.2067 2.9647 2.0044 0.0000 -10753.8086 1432.3881 0.0000 0.0000 1794.2876 -7520.9572 304.0157 -9315.2448 -7552.4511 304.9353 -29.0726 64.9150 30379.7191 20.1542 105.2174
ENERGY: 600000 0.8354 1.3337 1.8539 0.0000 -10721.8832 1439.9418 0.0000 0.0000 1737.4347 -7540.4837 294.3828 -9277.9184 -7548.8697 301.6871 -59.3251 78.2244 30525.5867 -65.7374 14.0058
ENERGY: 900000 1.9137 4.8090 1.8371 0.0000 -10729.8174 1480.5450 0.0000 0.0000 1795.9956 -7444.7169 304.3051 -9240.7125 -7541.5539 300.6008 389.4581 450.3843 30732.2830 7.9594 86.6082
ENERGY: 1200000 5.3759 2.2470 2.0340 0.0000 -10739.9943 1423.5904 0.0000 0.0000 1779.9891 -7526.7579 301.5930 -9306.7470 -7542.7727 299.6343 -340.0425 -296.6385 30629.5458 -4.9412 70.2060
ENERGY: 1500000 1.1675 2.3211 2.0490 0.0000 -10684.2191 1415.4734 0.0000 0.0000 1789.6754 -7473.5328 303.2342 -9263.2082 -7537.3802 300.6138 -374.4234 -304.1760 30868.8556 22.1390 93.9439
TCL: Running FEP window  10: Lambda1 0.44999999999999996 Lambda2 0.49999999999999994 [dLambda 0.04999999999999999]
TCL: Setting parameter firsttimestep to 0
TCL: Setting parameter alchLambda to 0.44999999999999996
Info: NONBONDED TABLE R-SQUARED SPACING: 0.0625
Info: NONBONDED TABLE SIZE: 705 POINTS
TCL: Setting parameter alchLambda2 to 0.49999999999999994
Info: NONBONDED TABLE R-SQUARED SPACING: 0.0625
Info: NONBONDED TABLE SIZE: 705 POINTS
TCL: Running for 1500000 steps
ETITLE: TS BOND ANGLE DIHED IMPRP ELECT VDW BOUNDARY MISC KINETIC TOTAL TEMP POTENTIAL TOTALAVG TEMPAVG PRESSURE GPRESSURE VOLUME PRESSAVG GPRESSAVG
ENERGY: 0 1.1675 2.3211 2.0490 0.0000 -10684.2199 1415.0020 0.0000 0.0000 1788.7666 -7474.9137 303.0802 -9263.6804 -7474.9137 303.0802 -388.8231 -302.6594 30868.8556 -388.8231 -302.6594
ENERGY: 300000 5.1278 6.0039 2.9779 0.0000 -10763.1036 1439.0991 0.0000 0.0000 1773.3395 -7536.5554 300.4663 -9309.8949 -7492.0497 302.1671 -89.0278 -13.9165 30254.0722 -404.6072 -324.9512
ENERGY: 600000 3.0484 4.3082 2.4864 0.0000 -10829.6888 1514.1299 0.0000 0.0000 1808.6501 -7497.0657 306.4492 -9305.7158 -7524.6315 300.7083 633.4690 704.3066 30377.2763 38.0877 114.8455
ENERGY: 900000 1.8341 2.1791 2.4537 0.0000 -10755.7213 1473.3956 0.0000 0.0000 1843.4803 -7432.3785 312.3507 -9275.8588 -7515.2013 302.2819 199.2435 218.3806 30722.7001 17.6519 90.9583
ENERGY: 1200000 1.7753 2.3976 2.7191 0.0000 -10662.5685 1438.6416 0.0000 0.0000 1757.5930 -7459.4419 297.7983 -9217.0350 -7520.2201 301.8322 158.8959 174.6365 30550.4087 67.1239 134.7564
ENERGY: 1500000 1.1537 4.5510 2.8914 0.0000 -10820.7963 1498.7498 0.0000 0.0000 1833.6096 -7479.8409 310.6782 -9313.4504 -7518.2392 301.8688 303.9611 313.3834 30669.6514 9.5018 74.7015
TCL: Running FEP window  11: Lambda1 0.49999999999999994 Lambda2 0.5499999999999999 [dLambda 0.04999999999999999]
TCL: Setting parameter firsttimestep to 0
TCL: Setting parameter alchLambda to 0.49999999999999994
Info: NONBONDED TABLE R-SQUARED SPACING: 0.0625
Info: NONBONDED TABLE SIZE: 705 POINTS
TCL: Setting parameter alchLambda2 to 0.5499999999999999
Info: NONBONDED TABLE R-SQUARED SPACING: 0.0625
Info: NONBONDED TABLE SIZE: 705 POINTS
TCL: Running for 1500000 steps
ETITLE: TS BOND ANGLE DIHED IMPRP ELECT VDW BOUNDARY MISC KINETIC TOTAL TEMP POTENTIAL TOTALAVG TEMPAVG PRESSURE GPRESSURE VOLUME PRESSAVG GPRESSAVG
ENERGY: 0 1.1536 4.5510 2.8914 0.0000 -10820.7946 1499.1243 0.0000 0.0000 1832.6951 -7480.3791 310.5233 -9313.0742 -7480.3791 310.5233 237.5173 321.3752 30669.6514 237.5173 321.3752
ENERGY: 300000 1.7713 3.1092 1.8590 0.0000 -10810.9580 1471.7454 0.0000 0.0000 1838.7008 -7493.7723 311.5408 -9332.4731 -7501.2209 302.3703 492.6271 562.2670 30095.9215 266.6961 321.8447
ENERGY: 600000 2.8015 2.3355 2.1507 0.0000 -10720.2100 1458.0514 0.0000 0.0000 1776.4729 -7478.3980 300.9972 -9254.8709 -7496.0616 303.1779 -119.6562 -53.5056 30990.3610 206.6525 273.1897
ENERGY: 900000 1.2300 5.2342 2.0125 0.0000 -10723.4098 1418.8065 0.0000 0.0000 1850.8189 -7445.3077 313.5941 -9296.1265 -7484.9609 304.2618 -218.9302 -147.3439 30696.3068 174.3779 237.0608
ENERGY: 1200000 1.0615 3.6020 2.1185 0.0000 -10733.1985 1452.4618 0.0000 0.0000 1719.1201 -7554.8347 291.2797 -9273.9548 -7512.2590 301.5896 -49.9647 -15.9483 30757.7355 162.8341 219.5471
ENERGY: 1500000 1.2930 6.7106 1.3519 0.0000 -10526.9525 1350.5361 0.0000 0.0000 1775.4460 -7391.6150 300.8233 -9167.0610 -7503.7110 301.5559 -543.9898 -444.4565 30650.7501 135.3988 195.7978
TCL: Running FEP window  12: Lambda1 0.5499999999999999 Lambda2 0.6    [dLambda 0.050000000000000044]
TCL: Setting parameter firsttimestep to 0
TCL: Setting parameter alchLambda to 0.5499999999999999
Info: NONBONDED TABLE R-SQUARED SPACING: 0.0625
Info: NONBONDED TABLE SIZE: 705 POINTS
TCL: Setting parameter alchLambda2 to 0.6
Info: NONBONDED TABLE R-SQUARED SPACING: 0.0625
Info: NONBONDED TABLE SIZE: 705 POINTS
TCL: Running for 1500000 steps
ETITLE: TS BOND ANGLE DIHED IMPRP ELECT VDW BOUNDARY MISC KINETIC TOTAL TEMP POTENTIAL TOTALAVG TEMPAVG PRESSURE GPRESSURE VOLUME PRESSAVG GPRESSAVG
ENERGY: 0 1.2930 6.7106 1.3519 0.0000 -10526.8829 1350.6050 0.0000 0.0000 1774.5698 -7392.3528 300.6748 -9166.9226 -7392.3528 300.6748 -513.5115 -437.3984 30650.7501 -513.5115 -437.3984
ENERGY: 300000 2.2971 2.7000 2.0571 0.0000 -10819.9542 1480.2045 0.0000 0.0000 1753.5010 -7579.1944 297.1050 -9332.6954 -7507.0810 298.7917 59.6171 130.0972 30614.0145 -213.0737 -147.2080
ENERGY: 600000 2.4056 2.3830 2.3782 0.0000 -10783.9299 1438.2198 0.0000 0.0000 1742.8539 -7595.6894 295.3010 -9338.5433 -7525.1813 299.8681 -422.1224 -357.8110 30698.4254 -281.1141 -231.8877
ENERGY: 900000 2.0709 2.4353 1.8726 0.0000 -10672.2760 1373.6069 0.0000 0.0000 1777.0959 -7515.1943 301.1028 -9292.2902 -7525.9240 299.8527 -543.6815 -488.9857 30524.8784 -313.3122 -258.3577
ENERGY: 1200000 2.3293 3.2829 2.4148 0.0000 -10856.3608 1447.5218 0.0000 0.0000 1729.9355 -7670.8766 293.1122 -9400.8121 -7543.6812 299.2512 -277.7698 -189.1771 30474.3913 -271.3768 -215.4809
ENERGY: 1500000 1.7928 5.2484 1.8809 0.0000 -10650.2529 1413.6714 0.0000 0.0000 1795.5153 -7432.1440 304.2237 -9227.6593 -7533.7471 299.7857 120.6404 191.3630 30273.4996 -171.2004 -110.5172
TCL: Running FEP window  13: Lambda1 0.6    Lambda2 0.65   [dLambda 0.050000000000000044]
TCL: Setting parameter firsttimestep to 0
TCL: Setting parameter alchLambda to 0.6
Info: NONBONDED TABLE R-SQUARED SPACING: 0.0625
Info: NONBONDED TABLE SIZE: 705 POINTS
TCL: Setting parameter alchLambda2 to 0.65
Info: NONBONDED TABLE R-SQUARED SPACING: 0.0625
Info: NONBONDED TABLE SIZE: 705 POINTS
TCL: Running for 1500000 steps
ETITLE: TS BOND ANGLE DIHED IMPRP ELECT VDW BOUNDARY MISC KINETIC TOTAL TEMP POTENTIAL TOTALAVG TEMPAVG PRESSURE GPRESSURE VOLUME PRESSAVG GPRESSAVG
ENERGY: 0 1.7928 5.2484 1.8809 0.0000 -10650.4410 1413.6398 0.0000 0.0000 1794.6371 -7433.2419 304.0749 -9227.8790 -7433.2419 304.0749 126.1104 197.4250 30273.4996 126.1104 197.4250
ENERGY: 300000 1.9609 2.6656 2.4378 0.0000 -10834.2353 1485.7715 0.0000 0.0000 1715.8861 -7625.5134 290.7317 -9341.3995 -7530.9777 298.0805 120.0665 201.3734 30228.6144 6.7877 96.1919
ENERGY: 600000 1.4628 2.3525 2.1617 0.0000 -10699.8511 1402.9872 0.0000 0.0000 1785.3086 -7505.5784 302.4943 -9290.8869 -7505.0775 299.8049 -376.8935 -313.4118 30767.3437 -221.3563 -141.3624
ENERGY: 900000 2.8336 3.0392 1.8146 0.0000 -10801.1373 1461.0288 0.0000 0.0000 1726.9997 -7605.4216 292.6147 -9332.4213 -7520.8505 298.0118 3.1396 1.7745 30651.1308 -203.2736 -138.7279
ENERGY: 1200000 3.1877 4.3913 1.6482 0.0000 -10746.1063 1410.8945 0.0000 0.0000 1733.4028 -7592.5816 293.6997 -9325.9845 -7526.3399 298.1440 -281.6395 -166.2431 30231.8770 -172.5480 -103.2590
ENERGY: 1500000 2.8530 1.9246 2.0687 0.0000 -10711.1220 1468.2023 0.0000 0.0000 1742.7871 -7493.2864 295.2897 -9236.0735 -7518.9303 297.5361 420.0365 399.0417 30622.7789 -126.3798 -62.1852
TCL: Running FEP window  14: Lambda1 0.65   Lambda2 0.7000000000000001 [dLambda 0.050000000000000044]
TCL: Setting parameter firsttimestep to 0
TCL: Setting parameter alchLambda to 0.65
Info: NONBONDED TABLE R-SQUARED SPACING: 0.0625
Info: NONBONDED TABLE SIZE: 705 POINTS
TCL: Setting parameter alchLambda2 to 0.7000000000000001
Info: NONBONDED TABLE R-SQUARED SPACING: 0.0625
Info: NONBONDED TABLE SIZE: 705 POINTS
TCL: Running for 1500000 steps
ETITLE: TS BOND ANGLE DIHED IMPRP ELECT VDW BOUNDARY MISC KINETIC TOTAL TEMP POTENTIAL TOTALAVG TEMPAVG PRESSURE GPRESSURE VOLUME PRESSAVG GPRESSAVG
ENERGY: 0 2.8530 1.9246 2.0687 0.0000 -10711.1360 1468.1301 0.0000 0.0000 1741.9275 -7494.2321 295.1440 -9236.1596 -7494.2321 295.1440 325.9562 404.7359 30622.7789 325.9562 404.7359
ENERGY: 300000 2.0714 3.5217 2.0521 0.0000 -10779.5132 1420.5580 0.0000 0.0000 1783.2783 -7568.0317 302.1503 -9351.3099 -7510.7023 302.5094 -46.6290 -33.5887 30195.2541 46.1660 96.8349
ENERGY: 600000 2.8855 1.4129 1.9807 0.0000 -10763.2783 1410.7347 0.0000 0.0000 1748.3981 -7597.8664 296.2404 -9346.2645 -7519.7170 301.7560 -532.8932 -465.7971 30905.9490 10.0584 57.9571
ENERGY: 900000 1.6832 2.5810 1.8219 0.0000 -10732.1227 1414.3617 0.0000 0.0000 1763.9963 -7547.6785 298.8833 -9311.6748 -7526.1792 300.5669 -466.4549 -344.0452 30869.4678 -72.0943 -8.7522
ENERGY: 1200000 1.6214 4.0375 2.1530 0.0000 -10840.4762 1441.4662 0.0000 0.0000 1811.2945 -7579.9035 306.8973 -9391.1980 -7533.5327 301.6096 -321.0786 -294.9871 30450.0030 -152.4484 -88.8905
ENERGY: 1500000 3.0254 1.0928 2.0038 0.0000 -10813.9735 1494.0296 0.0000 0.0000 1709.5468 -7604.2752 289.6576 -9313.8220 -7527.4765 302.0049 143.5920 216.8090 30670.3871 -121.5670 -56.0552
TCL: Running FEP window  15: Lambda1 0.7000000000000001 Lambda2 0.7500000000000001 [dLambda 0.050000000000000044]
TCL: Setting parameter firsttimestep to 0
TCL: Setting parameter alchLambda to 0.7000000000000001
Info: NONBONDED TABLE R-SQUARED SPACING: 0.0625
Info: NONBONDED TABLE SIZE: 705 POINTS
TCL: Setting parameter alchLambda2 to 0.7500000000000001
Info: NONBONDED TABLE R-SQUARED SPACING: 0.0625
Info: NONBONDED TABLE SIZE: 705 POINTS
TCL: Running for 1500000 steps
ETITLE: TS BOND ANGLE DIHED IMPRP ELECT VDW BOUNDARY MISC KINETIC TOTAL TEMP POTENTIAL TOTALAVG TEMPAVG PRESSURE GPRESSURE VOLUME PRESSAVG GPRESSAVG
ENERGY: 0 3.0254 1.0928 2.0038 0.0000 -10813.9790 1493.8072 0.0000 0.0000 1708.6865 -7605.3633 289.5118 -9314.0498 -7605.3633 289.5118 136.9889 221.4576 30670.3871 136.9889 221.4576
ENERGY: 300000 3.5172 1.9983 2.4443 0.0000 -10746.9635 1420.6316 0.0000 0.0000 1773.6555 -7544.7166 300.5199 -9318.3721 -7543.0289 295.3502 -205.3205 -123.8804 30647.7588 23.3901 106.5114
ENERGY: 600000 2.7965 2.1920 1.7386 0.0000 -10849.5286 1508.4937 0.0000 0.0000 1722.0152 -7612.2924 291.7702 -9334.3077 -7564.0971 295.1597 426.5693 504.1744 30300.0997 87.6040 163.1965
ENERGY: 900000 2.0720 1.3361 2.2269 0.0000 -10809.7741 1419.8072 0.0000 0.0000 1742.7047 -7641.6272 295.2757 -9384.3319 -7558.0099 296.9969 -409.9271 -365.1665 30572.6339 -18.7045 56.9303
ENERGY: 1200000 2.8577 1.8933 2.0364 0.0000 -10750.3359 1438.4448 0.0000 0.0000 1751.5595 -7553.5441 296.7760 -9305.1036 -7548.8466 297.7350 -100.8967 1.3302 30576.4921 50.6349 132.6911
ENERGY: 1500000 2.7923 2.2098 2.2923 0.0000 -10689.5636 1428.3445 0.0000 0.0000 1772.9915 -7480.9333 300.4074 -9253.9248 -7544.0432 298.4747 -136.0279 -69.4397 30838.1134 24.1327 111.2574
TCL: Running FEP window  16: Lambda1 0.7500000000000001 Lambda2 0.8000000000000002 [dLambda 0.050000000000000044]
TCL: Setting parameter firsttimestep to 0
TCL: Setting parameter alchLambda to 0.7500000000000001
Info: NONBONDED TABLE R-SQUARED SPACING: 0.0625
Info: NONBONDED TABLE SIZE: 705 POINTS
TCL: Setting parameter alchLambda2 to 0.8000000000000002
Info: NONBONDED TABLE R-SQUARED SPACING: 0.0625
Info: NONBONDED TABLE SIZE: 705 POINTS
TCL: Running for 1500000 steps
ETITLE: TS BOND ANGLE DIHED IMPRP ELECT VDW BOUNDARY MISC KINETIC TOTAL TEMP POTENTIAL TOTALAVG TEMPAVG PRESSURE GPRESSURE VOLUME PRESSAVG GPRESSAVG
ENERGY: 0 2.7923 2.2098 2.2923 0.0000 -10689.7768 1428.4750 0.0000 0.0000 1772.0895 -7481.9179 300.2546 -9254.0074 -7481.9179 300.2546 -136.5472 -59.2606 30838.1134 -136.5472 -59.2606
ENERGY: 300000 2.4581 3.3464 2.0214 0.0000 -10729.4643 1466.1873 0.0000 0.0000 1782.2061 -7473.2449 301.9687 -9255.4511 -7505.6154 301.0197 624.9902 724.3347 29886.1550 358.2356 447.2036
ENERGY: 600000 2.6284 1.8534 1.8254 0.0000 -10793.0836 1492.6396 0.0000 0.0000 1783.3985 -7510.7383 302.1707 -9294.1367 -7516.1189 300.2402 310.5408 373.3022 30646.1635 302.7788 381.9478
ENERGY: 900000 1.2001 1.7595 1.6621 0.0000 -10807.0372 1444.6974 0.0000 0.0000 1708.8973 -7648.8208 289.5476 -9357.7181 -7539.0570 299.6129 -475.1842 -428.6893 30964.9841 69.3699 145.9085
ENERGY: 1200000 1.3688 3.9968 1.5482 0.0000 -10727.7116 1436.8477 0.0000 0.0000 1759.9583 -7523.9918 298.1991 -9283.9501 -7546.7057 298.8787 105.4660 123.4318 30549.5656 52.7624 118.2455
ENERGY: 1500000 1.8936 2.6174 1.9492 0.0000 -10701.6152 1437.4287 0.0000 0.0000 1733.3904 -7524.3359 293.6975 -9257.7263 -7546.0731 298.5879 -112.8378 -89.1916 30780.4455 -47.9378 18.1313
TCL: Running FEP window  17: Lambda1 0.8000000000000002 Lambda2 0.8500000000000002 [dLambda 0.050000000000000044]
TCL: Setting parameter firsttimestep to 0
TCL: Setting parameter alchLambda to 0.8000000000000002
Info: NONBONDED TABLE R-SQUARED SPACING: 0.0625
Info: NONBONDED TABLE SIZE: 705 POINTS
TCL: Setting parameter alchLambda2 to 0.8500000000000002
Info: NONBONDED TABLE R-SQUARED SPACING: 0.0625
Info: NONBONDED TABLE SIZE: 705 POINTS
TCL: Running for 1500000 steps
ETITLE: TS BOND ANGLE DIHED IMPRP ELECT VDW BOUNDARY MISC KINETIC TOTAL TEMP POTENTIAL TOTALAVG TEMPAVG PRESSURE GPRESSURE VOLUME PRESSAVG GPRESSAVG
ENERGY: 0 1.8936 2.6174 1.9492 0.0000 -10701.5362 1437.8737 0.0000 0.0000 1732.5028 -7524.6994 293.5472 -9257.2022 -7524.6994 293.5472 -149.0859 -76.2675 30780.4455 -149.0859 -76.2675
ENERGY: 300000 3.2408 2.7245 2.0100 0.0000 -10662.0310 1393.6028 0.0000 0.0000 1741.1640 -7519.2888 295.0147 -9260.4528 -7513.9592 297.7032 -484.2813 -477.1808 31044.6234 -181.9503 -132.2057
ENERGY: 600000 1.3570 1.4195 1.8131 0.0000 -10739.5487 1470.1960 0.0000 0.0000 1798.3867 -7466.3763 304.7102 -9264.7631 -7508.7737 300.4150 396.5176 388.3285 30647.3771 -2.3701 39.9454
ENERGY: 900000 0.7425 2.7980 1.7806 0.0000 -10880.8643 1567.3990 0.0000 0.0000 1784.4820 -7523.6623 302.3543 -9308.1443 -7513.8868 300.2891 736.8344 874.8575 30849.6901 163.3881 219.4080
ENERGY: 1200000 0.6661 7.2659 2.0020 0.0000 -10697.2484 1428.6389 0.0000 0.0000 1762.7196 -7495.9559 298.6670 -9258.6755 -7516.0100 300.1050 307.9141 395.7423 30009.8557 111.1223 172.5053
ENERGY: 1500000 1.5109 0.9156 1.8780 0.0000 -10708.3643 1437.5246 0.0000 0.0000 1805.1606 -7461.3747 305.8580 -9266.5352 -7511.1568 300.5962 91.2988 166.0519 30592.1211 14.7128 76.9992
TCL: Running FEP window  18: Lambda1 0.8500000000000002 Lambda2 0.9000000000000002 [dLambda 0.050000000000000044]
TCL: Setting parameter firsttimestep to 0
TCL: Setting parameter alchLambda to 0.8500000000000002
Info: NONBONDED TABLE R-SQUARED SPACING: 0.0625
Info: NONBONDED TABLE SIZE: 705 POINTS
TCL: Setting parameter alchLambda2 to 0.9000000000000002
Info: NONBONDED TABLE R-SQUARED SPACING: 0.0625
Info: NONBONDED TABLE SIZE: 705 POINTS
TCL: Running for 1500000 steps
ETITLE: TS BOND ANGLE DIHED IMPRP ELECT VDW BOUNDARY MISC KINETIC TOTAL TEMP POTENTIAL TOTALAVG TEMPAVG PRESSURE GPRESSURE VOLUME PRESSAVG GPRESSAVG
ENERGY: 0 1.5109 0.9156 1.8780 0.0000 -10708.5167 1437.4865 0.0000 0.0000 1804.3034 -7462.4223 305.7127 -9266.7258 -7462.4223 305.7127 97.4286 172.5592 30592.1211 97.4286 172.5592
ENERGY: 300000 2.2288 3.3159 1.9936 0.0000 -10721.4604 1423.5265 0.0000 0.0000 1792.6159 -7497.7797 303.7324 -9290.3956 -7500.0087 304.5767 -52.2384 -27.9248 30455.3255 -96.1121 -29.7579
ENERGY: 600000 3.0002 2.2388 2.1601 0.0000 -10757.9765 1401.6543 0.0000 0.0000 1792.0865 -7556.8365 303.6427 -9348.9230 -7502.2785 304.9423 -780.1358 -691.2453 30975.8757 -120.1644 -47.9476
ENERGY: 900000 2.0979 2.3586 1.9314 0.0000 -10868.9957 1517.8822 0.0000 0.0000 1777.6625 -7567.0631 301.1988 -9344.7257 -7518.1410 305.1626 108.5494 168.4796 31221.2155 -135.5770 -57.8705
ENERGY: 1200000 3.7250 2.2687 1.6254 0.0000 -10864.5244 1537.4412 0.0000 0.0000 1771.3617 -7548.1024 300.1312 -9319.4640 -7516.2645 304.7845 635.6515 712.4217 30479.1827 -107.5445 -32.4057
ENERGY: 1500000 0.8417 2.3603 2.0431 0.0000 -10725.9301 1394.5402 0.0000 0.0000 1758.7092 -7567.4355 297.9875 -9326.1448 -7515.7083 304.0539 -315.6998 -274.9855 30459.9020 -117.9484 -50.7741
TCL: Running FEP window  19: Lambda1 0.9000000000000002 Lambda2 0.9500000000000003 [dLambda 0.050000000000000044]
TCL: Setting parameter firsttimestep to 0
TCL: Setting parameter alchLambda to 0.9000000000000002
Info: NONBONDED TABLE R-SQUARED SPACING: 0.0625
Info: NONBONDED TABLE SIZE: 705 POINTS
TCL: Setting parameter alchLambda2 to 0.9500000000000003
Info: NONBONDED TABLE R-SQUARED SPACING: 0.0625
Info: NONBONDED TABLE SIZE: 705 POINTS
TCL: Running for 1500000 steps
ETITLE: TS BOND ANGLE DIHED IMPRP ELECT VDW BOUNDARY MISC KINETIC TOTAL TEMP POTENTIAL TOTALAVG TEMPAVG PRESSURE GPRESSURE VOLUME PRESSAVG GPRESSAVG
ENERGY: 0 0.8417 2.3603 2.0431 0.0000 -10725.9052 1394.7070 0.0000 0.0000 1757.8652 -7568.0879 297.8445 -9325.9531 -7568.0879 297.8445 -344.8836 -264.7015 30459.9020 -344.8836 -264.7015
ENERGY: 300000 2.5809 4.0206 1.8553 0.0000 -10750.6152 1389.5127 0.0000 0.0000 1799.6180 -7553.0275 304.9189 -9352.6455 -7534.8495 299.4687 -611.0726 -533.7506 30673.0460 -593.4814 -517.0047
ENERGY: 600000 0.8045 1.7782 2.0644 0.0000 -10656.6449 1415.5260 0.0000 0.0000 1759.7315 -7476.7403 298.1607 -9236.4718 -7521.1648 299.2545 144.3939 219.4992 30306.9034 -403.8029 -320.4110
ENERGY: 900000 2.9802 2.2968 2.8754 0.0000 -10733.6471 1461.3657 0.0000 0.0000 1786.7143 -7477.4148 302.7325 -9264.1291 -7518.7864 299.6523 -39.1824 37.9810 30857.8000 -207.1354 -126.3193
ENERGY: 1200000 2.3341 5.5447 1.8369 0.0000 -10690.0262 1342.1142 0.0000 0.0000 1787.1377 -7551.0587 302.8042 -9338.1964 -7527.2267 299.9057 -1217.6781 -1181.5186 31125.7619 -247.2107 -172.0695
ENERGY: 1500000 1.8690 3.7176 2.0961 0.0000 -10812.0022 1507.7797 0.0000 0.0000 1752.3906 -7544.1491 296.9169 -9296.5398 -7533.0966 299.5416 513.8792 561.8679 30564.8169 -82.1600 -9.2301
TCL: Running FEP window  20: Lambda1 0.9500000000000003 Lambda2 1.0    [dLambda 0.04999999999999971]
TCL: Setting parameter firsttimestep to 0
TCL: Setting parameter alchLambda to 0.9500000000000003
Info: NONBONDED TABLE R-SQUARED SPACING: 0.0625
Info: NONBONDED TABLE SIZE: 705 POINTS
TCL: Setting parameter alchLambda2 to 1.0
Info: NONBONDED TABLE R-SQUARED SPACING: 0.0625
Info: NONBONDED TABLE SIZE: 705 POINTS
TCL: Running for 1500000 steps
ETITLE: TS BOND ANGLE DIHED IMPRP ELECT VDW BOUNDARY MISC KINETIC TOTAL TEMP POTENTIAL TOTALAVG TEMPAVG PRESSURE GPRESSURE VOLUME PRESSAVG GPRESSAVG
ENERGY: 0 1.8690 3.7176 2.0961 0.0000 -10812.1355 1507.7454 0.0000 0.0000 1751.5101 -7545.1973 296.7677 -9296.7074 -7545.1973 296.7677 499.4199 570.7757 30564.8169 499.4199 570.7757
ENERGY: 300000 1.9420 1.6368 2.0002 0.0000 -10726.5716 1427.5847 0.0000 0.0000 1724.0800 -7569.3280 292.1200 -9293.4080 -7572.5349 295.1112 -534.3909 -476.6783 31286.7208 -238.0025 -184.4362
ENERGY: 600000 3.0512 4.5756 2.1807 0.0000 -10689.0131 1378.6429 0.0000 0.0000 1761.1766 -7539.3861 298.4055 -9300.5627 -7558.9272 296.1659 -417.2869 -277.3950 30428.0127 -208.1550 -135.2239
ENERGY: 900000 2.7225 3.6236 1.9689 0.0000 -10712.1389 1425.0329 0.0000 0.0000 1833.7369 -7445.0540 310.6998 -9278.7909 -7530.2754 300.4275 115.7177 220.8527 30342.9560 -78.4013 -2.2839
ENERGY: 1200000 3.8607 3.7775 2.4262 0.0000 -10773.4390 1415.7699 0.0000 0.0000 1748.6508 -7598.9538 296.2832 -9347.6046 -7545.1713 299.8663 -342.8505 -294.1342 30612.7154 -30.7764 40.0946
ENERGY: 1500000 1.6612 1.4026 2.2653 0.0000 -10620.5370 1404.0696 0.0000 0.0000 1733.6340 -7477.5043 293.7388 -9211.1383 -7536.6750 299.9107 11.9250 69.2802 30721.6198 -55.3615 7.9338
TCL: Exiting due to exit command.
