Info: SIMULATION PARAMETERS:
Info: TIMESTEP               2
Info: NUMBER OF STEPS        0
Info: STEPS PER CYCLE        10
Info: PERIODIC CELL BASIS 1  31.7615 0 0
Info: PERIODIC CELL BASIS 2  0 31.2375 0
Info: PERIODIC CELL BASIS 3  0 0 31.3743
Info: PERIODIC CELL CENTER   0 0 0
Info: WRAPPING WATERS AROUND PERIODIC BOUNDARIES ON OUTPUT.
Info: WRAPPING ALL CLUSTERS AROUND PERIODIC BOUNDARIES ON OUTPUT.
Info: FIRST LDB TIMESTEP     50
Info: LAST LDB TIMESTEP     -1
Info: HOM BACKGROUND SCALING 1
Info: PME BACKGROUND SCALING 1
Info: MIN ATOMS PER PATCH    40
Info: EMPTY PATCH LOAD       40 ATOMS
Info: VELOCITY FILE          mobley_7047032_equil.vel
Info: CENTER OF MASS MOVING INITIALLY? NO
Info: DIELECTRIC             1
Info: EXCLUDE                SCALED ONE-FOUR
Info: 1-4 ELECTROSTATICS SCALED BY 0.833333
Info: MODIFIED 1-4 VDW PARAMETERS WILL BE USED
Info: DCD FILENAME           mobley_7047032_prod.dcd
Info: DCD FREQUENCY          100000
Info: DCD FIRST STEP         100000
Info: DCD FILE WILL CONTAIN UNIT CELL DATA
Info: XST FILENAME           mobley_7047032_prod.xst
Info: XST FREQUENCY          100000
Info: NO VELOCITY DCD OUTPUT
Info: NO FORCE DCD OUTPUT
Info: OUTPUT FILENAME        mobley_7047032_prod
Info: BINARY OUTPUT FILES WILL BE USED
Info: RESTART FILENAME       mobley_7047032_prod.restart
Info: RESTART FREQUENCY      100000
Info: BINARY RESTART FILES WILL BE USED
Info: CUTOFF                 9
Info: PAIRLIST DISTANCE      11
Info: PAIRLIST SHRINK RATE   0.01
Info: PAIRLIST GROW RATE     0.01
Info: PAIRLIST TRIGGER       0.3
Info: PAIRLISTS PER CYCLE    2
Info: PAIRLISTS ENABLED
Info: MARGIN                 2
Info: HYDROGEN GROUP CUTOFF  2.5
Info: PATCH DIMENSION        15.5
Info: ENERGY OUTPUT STEPS    100000
Info: ENERGY EVALUATION STEPS    100000
Info: OUTPUT ENERGY PRECISION 4
Info: CROSSTERM ENERGY INCLUDED IN DIHEDRAL
Info: TIMING OUTPUT STEPS    1000000
Info: PRESSURE OUTPUT STEPS  100000
Info: ALCHEMICAL FEP ON
Info: FEP CURRENT LAMBDA VALUE     0
Info: FEP COMPARISON LAMBDA VALUE  0.05
Info: FEP INTRA-ALCHEMICAL NON-BONDED INTERACTIONS WILL BE RETAINED
Info: FEP INTRA-ALCHEMICAL BONDED INTERACTIONS WILL BE RETAINED
Info: FEP VDW SHIFTING COEFFICIENT 5
Info: FEP ELEC. ACTIVE FOR ANNIHILATED PARTICLES BETWEEN LAMBDA = 0 AND LAMBDA = 0.5
Info: FEP ELEC. ACTIVE FOR EXNIHILATED PARTICLES BETWEEN LAMBDA = 0.5 AND LAMBDA = 1
Info: FEP VDW ACTIVE FOR ANNIHILATED PARTICLES BETWEEN LAMBDA = 0 AND LAMBDA = 1
Info: FEP VDW ACTIVE FOR EXNIHILATED PARTICLES BETWEEN LAMBDA = 0 AND LAMBDA = 1
Info: FEP BOND ACTIVE FOR ANNIHILATED PARTICLES BETWEEN LAMBDA = 1 AND LAMBDA = 1
Info: FEP BOND ACTIVE FOR EXNIHILATED PARTICLES BETWEEN LAMBDA = 0 AND LAMBDA = 0
Info: LANGEVIN DYNAMICS ACTIVE
Info: LANGEVIN TEMPERATURE   300
Info: LANGEVIN USING BBK INTEGRATOR
Info: LANGEVIN DAMPING COEFFICIENT IS 1 INVERSE PS
Info: LANGEVIN DYNAMICS APPLIED TO HYDROGENS
Info: LANGEVIN PISTON PRESSURE CONTROL ACTIVE
Info:        TARGET PRESSURE IS 1.01325 BAR
Info:     OSCILLATION PERIOD IS 50 FS
Info:             DECAY TIME IS 25 FS
Info:     PISTON TEMPERATURE IS 300 K
Info:       PRESSURE CONTROL IS GROUP-BASED
Info:    INITIAL STRAIN RATE IS -0.000141597 -0.000141597 -0.000141597
Info:       CELL FLUCTUATION IS ISOTROPIC
Info: PARTICLE MESH EWALD (PME) ACTIVE
Info: PME TOLERANCE               1e-06
Info: PME EWALD COEFFICIENT       0.348832
Info: PME INTERPOLATION ORDER     4
Info: PME GRID DIMENSIONS         32 32 32
Info: PME MAXIMUM GRID SPACING    1
Info: PME CALCULATION WILL BE PERFORMED ON GPU
Info: FULL ELECTROSTATIC EVALUATION FREQUENCY      2
Info: USING VERLET I (r-RESPA) MTS SCHEME.
Info: C1 SPLITTING OF LONG RANGE ELECTROSTATICS
Info: PLACING ATOMS IN PATCHES BY HYDROGEN GROUPS
Info: RIGID BONDS TO HYDROGEN : ALL
Info:         ERROR TOLERANCE : 1e-08
Info:          MAX ITERATIONS : 100
Info: RIGID WATER USING SETTLE ALGORITHM
Info: RANDOM NUMBER SEED     1742252545
Info: USE HYDROGEN BONDS?    NO
Info: Using AMBER format force field!
Info: AMBER PARM FILE        mobley_7047032.prmtop
Info: COORDINATE PDB         mobley_7047032.pdb
Info: Exclusions will be read from PARM file!
Info: SCNB (VDW SCALING)     2
Info: USING ARITHMETIC MEAN TO COMBINE L-J SIGMA PARAMETERS
Info: BINARY COORDINATES     mobley_7047032_equil.coor
Info: SUMMARY OF PARAMETERS:
Info: 5 BONDS
Info: 4 ANGLES
Info:   4 HARMONIC
Info:   0 COSINE-BASED
Info: 2 DIHEDRAL
Info: 0 IMPROPER
Info: 0 CROSSTERM
Info: 0 VDW
Info: 15 VDW_PAIRS
Info: 0 NBTHOLE_PAIRS
Info: To read alchdata from file: mobley_7047032.pdb
Info: To read alchflag data from column: 5
Info: STRUCTURE SUMMARY:
Info: 2990 ATOMS
Info: 2989 BONDS
Info: 24 ANGLES
Info: 27 DIHEDRALS
Info: 0 IMPROPERS
Info: 0 CROSSTERMS
Info: 3040 EXCLUSIONS
Info: 2985 RIGID BONDS
Info: ALCH: 0 ATOMS TO DISAPPEAR IN FINAL STATE
Info: ALCH: 14 ATOMS TO APPEAR IN FINAL STATE
Info: 5985 DEGREES OF FREEDOM
Info: 997 HYDROGEN GROUPS
Info: 4 ATOMS IN LARGEST HYDROGEN GROUP
Info: 997 MIGRATION GROUPS
Info: 4 ATOMS IN LARGEST MIGRATION GROUP
Info: TOTAL MASS = 17964.4 amu
Info: TOTAL CHARGE = 0.000100009 e
Info: MASS DENSITY = 0.958342 g/cm^3
Info: ATOM DENSITY = 0.0960548 atoms/A^3
Info: ADDED 0 IMPLICIT EXCLUSIONS
Info: NONBONDED TABLE R-SQUARED SPACING: 0.0625
Info: NONBONDED TABLE SIZE: 705 POINTS
Info: REMOVING COM VELOCITY 0.0884959 0.145565 -0.0766965
Info: Use 3D box decompostion in PME FFT.
Info: Updated CUDA force table with 4096 elements.
Info: Updated CUDA LJ table with 5 x 5 elements.
Info: Found 17 unique exclusion lists needing 36 bytes
TCL: Running for 1500000 steps
ETITLE: TS BOND ANGLE DIHED IMPRP ELECT VDW BOUNDARY MISC KINETIC TOTAL TEMP POTENTIAL TOTALAVG TEMPAVG PRESSURE GPRESSURE VOLUME PRESSAVG GPRESSAVG
ENERGY: 0 2.0580 6.2879 0.3666 0.0000 -10834.9146 1499.2865 0.0000 0.0000 1785.2320 -7541.6835 300.2070 -9326.9155 -7541.6835 300.2070 213.2807 292.1455 31128.0731 213.2807 292.1455
ENERGY: 300000 1.1116 9.2843 0.8539 0.0000 -10766.7258 1398.9226 0.0000 0.0000 1814.6023 -7541.9510 305.1460 -9356.5533 -7556.5833 300.1455 -100.7705 -45.8590 30185.9216 42.8641 101.7397
ENERGY: 600000 0.8445 7.2436 1.1378 0.0000 -10724.1523 1352.3328 0.0000 0.0000 1830.5545 -7532.0391 307.8286 -9362.5937 -7558.2141 300.5585 -918.6524 -811.1415 30817.1370 -130.3948 -67.9986
ENERGY: 900000 2.8677 11.9863 0.7719 0.0000 -10842.1146 1425.8766 0.0000 0.0000 1798.1027 -7602.5093 302.3714 -9400.6120 -7569.4736 301.1446 -437.3836 -387.9852 30779.0043 -149.4924 -88.0008
ENERGY: 1200000 1.4730 5.6953 0.3379 0.0000 -10891.6573 1527.8897 0.0000 0.0000 1771.0784 -7585.1829 297.8270 -9356.2614 -7575.3100 300.3188 372.7375 454.3249 30746.1133 -156.1303 -93.5895
ENERGY: 1500000 0.2543 4.4892 1.4874 0.0000 -10802.4088 1402.8751 0.0000 0.0000 1838.0728 -7555.2299 309.0928 -9393.3028 -7585.5499 300.5828 -266.4513 -236.6557 30509.6203 -156.5117 -94.1171
TCL: Running FEP window   2: Lambda1 0.05   Lambda2 0.1    [dLambda 0.05  ]
TCL: Setting parameter firsttimestep to 0
TCL: Setting parameter alchLambda to 0.05
Info: NONBONDED TABLE R-SQUARED SPACING: 0.0625
Info: NONBONDED TABLE SIZE: 705 POINTS
TCL: Setting parameter alchLambda2 to 0.1
Info: NONBONDED TABLE R-SQUARED SPACING: 0.0625
Info: NONBONDED TABLE SIZE: 705 POINTS
TCL: Running for 1500000 steps
ETITLE: TS BOND ANGLE DIHED IMPRP ELECT VDW BOUNDARY MISC KINETIC TOTAL TEMP POTENTIAL TOTALAVG TEMPAVG PRESSURE GPRESSURE VOLUME PRESSAVG GPRESSAVG
ENERGY: 0 0.2543 4.4892 1.4874 0.0000 -10802.4091 1404.7179 0.0000 0.0000 1837.1267 -7554.3335 308.9337 -9391.4602 -7554.3335 308.9337 -299.5959 -231.5624 30509.6203 -299.5959 -231.5624
ENERGY: 300000 1.6688 7.5843 0.1521 0.0000 -10758.0789 1425.1637 0.0000 0.0000 1819.9258 -7503.5842 306.0412 -9323.5100 -7522.4354 304.2676 -242.2677 -173.8068 30535.9453 -125.3391 -57.7270
ENERGY: 600000 1.1804 5.4160 1.3199 0.0000 -10883.9141 1514.0476 0.0000 0.0000 1752.1156 -7609.8347 294.6381 -9361.9503 -7522.6425 304.5279 533.9860 555.9479 30352.3464 117.2001 184.3915
ENERGY: 900000 0.6381 6.5990 2.0185 0.0000 -10922.2451 1500.0459 0.0000 0.0000 1742.3374 -7670.6061 292.9938 -9412.9435 -7547.5478 302.8313 238.7393 332.7799 30407.8245 3.7429 72.9903
ENERGY: 1200000 0.9781 5.1028 2.5786 0.0000 -10963.8183 1573.6255 0.0000 0.0000 1749.4887 -7632.0446 294.1964 -9381.5333 -7554.6743 301.7386 755.9603 806.8321 30750.9825 81.9676 145.3638
ENERGY: 1500000 0.6627 6.7309 1.2245 0.0000 -10822.6914 1432.4201 0.0000 0.0000 1819.8107 -7561.8424 306.0219 -9381.6531 -7556.8147 302.3703 -212.0337 -131.3677 30683.0388 50.3109 112.4129
TCL: Running FEP window   3: Lambda1 0.1    Lambda2 0.15000000000000002 [dLambda 0.05000000000000002]
TCL: Setting parameter firsttimestep to 0
TCL: Setting parameter alchLambda to 0.1
Info: NONBONDED TABLE R-SQUARED SPACING: 0.0625
Info: NONBONDED TABLE SIZE: 705 POINTS
TCL: Setting parameter alchLambda2 to 0.15000000000000002
Info: NONBONDED TABLE R-SQUARED SPACING: 0.0625
Info: NONBONDED TABLE SIZE: 705 POINTS
TCL: Running for 1500000 steps
ETITLE: TS BOND ANGLE DIHED IMPRP ELECT VDW BOUNDARY MISC KINETIC TOTAL TEMP POTENTIAL TOTALAVG TEMPAVG PRESSURE GPRESSURE VOLUME PRESSAVG GPRESSAVG
ENERGY: 0 0.6627 6.7309 1.2245 0.0000 -10822.6900 1434.2825 0.0000 0.0000 1818.9531 -7560.8362 305.8776 -9379.7894 -7560.8362 305.8776 -221.0402 -124.8995 30683.0388 -221.0402 -124.8995
ENERGY: 300000 0.8102 3.6035 0.9069 0.0000 -10728.6824 1401.0626 0.0000 0.0000 1806.1391 -7516.1601 303.7228 -9322.2992 -7571.9253 304.4888 -609.9455 -549.0824 31290.5207 -239.3115 -162.1373
ENERGY: 600000 0.4308 5.3951 0.9878 0.0000 -10803.5528 1463.0426 0.0000 0.0000 1794.2668 -7539.4296 301.7264 -9333.6964 -7572.6050 302.3811 303.7178 379.8393 30444.7713 61.3245 128.8987
ENERGY: 900000 1.6800 5.2027 1.8837 0.0000 -10919.0838 1501.0682 0.0000 0.0000 1802.7767 -7606.4724 303.1574 -9409.2491 -7567.2037 303.8096 323.5827 341.6117 30339.0686 187.3536 231.3654
ENERGY: 1200000 0.8285 5.5861 0.5330 0.0000 -10873.7905 1457.7969 0.0000 0.0000 1805.6487 -7603.3974 303.6403 -9409.0460 -7577.6924 303.3796 88.6198 124.9071 30265.2176 158.8303 201.5197
ENERGY: 1500000 0.6689 7.2616 0.3295 0.0000 -10733.7369 1392.9341 0.0000 0.0000 1809.7708 -7522.7721 304.3335 -9332.5428 -7577.6933 302.9024 -521.4130 -472.3850 30911.0751 60.4428 99.7541
TCL: Running FEP window   4: Lambda1 0.15000000000000002 Lambda2 0.2    [dLambda 0.04999999999999999]
TCL: Setting parameter firsttimestep to 0
TCL: Setting parameter alchLambda to 0.15000000000000002
Info: NONBONDED TABLE R-SQUARED SPACING: 0.0625
Info: NONBONDED TABLE SIZE: 705 POINTS
TCL: Setting parameter alchLambda2 to 0.2
Info: NONBONDED TABLE R-SQUARED SPACING: 0.0625
Info: NONBONDED TABLE SIZE: 705 POINTS
TCL: Running for 1500000 steps
ETITLE: TS BOND ANGLE DIHED IMPRP ELECT VDW BOUNDARY MISC KINETIC TOTAL TEMP POTENTIAL TOTALAVG TEMPAVG PRESSURE GPRESSURE VOLUME PRESSAVG GPRESSAVG
ENERGY: 0 0.6689 7.2616 0.3295 0.0000 -10733.7363 1393.9944 0.0000 0.0000 1808.8908 -7522.5911 304.1856 -9331.4819 -7522.5911 304.1856 -545.8773 -466.7245 30911.0751 -545.8773 -466.7245
ENERGY: 300000 0.0988 6.7477 1.5956 0.0000 -10922.7964 1514.2287 0.0000 0.0000 1828.7928 -7571.3329 307.5323 -9400.1257 -7558.7755 305.7168 287.2002 359.9703 30720.2271 -187.3994 -117.2787
ENERGY: 600000 1.3623 4.3871 0.5346 0.0000 -10897.4412 1496.8407 0.0000 0.0000 1774.7306 -7619.5858 298.4411 -9394.3164 -7586.1059 300.9545 46.2974 117.2265 30919.7759 -139.0359 -68.4341
ENERGY: 900000 1.0340 7.3960 0.7244 0.0000 -10947.6077 1519.3942 0.0000 0.0000 1807.4806 -7611.5784 303.9484 -9419.0590 -7574.9234 302.5679 196.1465 273.2247 30727.0651 -112.5382 -39.1005
ENERGY: 1200000 2.1099 6.9855 0.2678 0.0000 -10769.5219 1455.4913 0.0000 0.0000 1824.1270 -7480.5403 306.7477 -9304.6673 -7564.1017 302.6411 -3.3269 104.5098 30995.5580 -11.6275 61.5862
ENERGY: 1500000 1.1503 5.6778 0.7682 0.0000 -10877.0654 1489.0137 0.0000 0.0000 1830.3536 -7550.1019 307.7948 -9380.4555 -7560.7434 303.8151 175.7966 280.7962 30433.2049 -30.6984 41.2280
TCL: Running FEP window   5: Lambda1 0.2    Lambda2 0.25   [dLambda 0.04999999999999999]
TCL: Setting parameter firsttimestep to 0
TCL: Setting parameter alchLambda to 0.2
Info: NONBONDED TABLE R-SQUARED SPACING: 0.0625
Info: NONBONDED TABLE SIZE: 705 POINTS
TCL: Setting parameter alchLambda2 to 0.25
Info: NONBONDED TABLE R-SQUARED SPACING: 0.0625
Info: NONBONDED TABLE SIZE: 705 POINTS
TCL: Running for 1500000 steps
ETITLE: TS BOND ANGLE DIHED IMPRP ELECT VDW BOUNDARY MISC KINETIC TOTAL TEMP POTENTIAL TOTALAVG TEMPAVG PRESSURE GPRESSURE VOLUME PRESSAVG GPRESSAVG
ENERGY: 0 1.1503 5.6778 0.7682 0.0000 -10877.0655 1490.8588 0.0000 0.0000 1829.4573 -7549.1531 307.6440 -9378.6105 -7549.1531 307.6440 201.9113 293.1222 30433.2049 201.9113 293.1222
ENERGY: 300000 0.5925 7.1643 0.5283 0.0000 -10862.6419 1486.0804 0.0000 0.0000 1774.8682 -7593.4081 298.4643 -9368.2763 -7577.2440 302.6424 237.2341 232.4001 30529.6803 329.2882 386.0585
ENERGY: 600000 1.4900 7.3654 1.6037 0.0000 -10696.4042 1406.4476 0.0000 0.0000 1773.1231 -7506.3746 298.1708 -9279.4976 -7565.8816 301.5421 13.0135 55.7230 30548.9153 157.0285 231.0273
ENERGY: 900000 1.2493 5.6439 0.3899 0.0000 -10682.2743 1405.9229 0.0000 0.0000 1788.3695 -7480.6987 300.7347 -9269.0682 -7555.9287 302.2971 -220.2933 -225.0929 31056.6952 116.9831 176.6118
ENERGY: 1200000 4.1705 7.0375 0.7515 0.0000 -10744.3907 1405.1361 0.0000 0.0000 1755.1277 -7572.1675 295.1447 -9327.2952 -7569.3947 300.4601 -499.9504 -368.4209 30824.0240 150.3123 214.6591
ENERGY: 1500000 0.9179 6.3625 0.1372 0.0000 -10873.1523 1445.5931 0.0000 0.0000 1738.9796 -7681.1620 292.4292 -9420.1416 -7581.4924 299.6567 -39.7606 -7.7260 30283.1904 89.6257 154.1146
TCL: Running FEP window   6: Lambda1 0.25   Lambda2 0.3    [dLambda 0.04999999999999999]
TCL: Setting parameter firsttimestep to 0
TCL: Setting parameter alchLambda to 0.25
Info: NONBONDED TABLE R-SQUARED SPACING: 0.0625
Info: NONBONDED TABLE SIZE: 705 POINTS
TCL: Setting parameter alchLambda2 to 0.3
Info: NONBONDED TABLE R-SQUARED SPACING: 0.0625
Info: NONBONDED TABLE SIZE: 705 POINTS
TCL: Running for 1500000 steps
ETITLE: TS BOND ANGLE DIHED IMPRP ELECT VDW BOUNDARY MISC KINETIC TOTAL TEMP POTENTIAL TOTALAVG TEMPAVG PRESSURE GPRESSURE VOLUME PRESSAVG GPRESSAVG
ENERGY: 0 0.9179 6.3625 0.1372 0.0000 -10873.1520 1445.3278 0.0000 0.0000 1738.0605 -7682.3462 292.2746 -9420.4067 -7682.3462 292.2746 -74.2058 -6.7638 30283.1904 -74.2058 -6.7638
ENERGY: 300000 0.3300 6.5936 0.4424 0.0000 -10960.3057 1485.0970 0.0000 0.0000 1809.1930 -7658.6496 304.2364 -9467.8426 -7664.3057 296.6043 -92.8645 -88.8042 30837.8114 9.6727 64.4023
ENERGY: 600000 1.2244 7.9241 0.4405 0.0000 -10883.9661 1443.0692 0.0000 0.0000 1739.9768 -7691.3311 292.5969 -9431.3078 -7625.8077 298.6597 -223.1832 -146.3119 30466.2753 -128.0877 -61.7369
ENERGY: 900000 0.5694 6.0156 0.9148 0.0000 -10698.7917 1371.1184 0.0000 0.0000 1823.5893 -7496.5842 306.6573 -9320.1735 -7604.6225 301.9024 -713.0224 -640.0543 31322.3932 -269.2639 -194.5466
ENERGY: 1200000 1.3578 4.2260 0.7543 0.0000 -10725.6671 1380.4894 0.0000 0.0000 1790.3770 -7548.4625 301.0722 -9338.8395 -7598.1215 301.2784 -612.2263 -533.6651 30861.3152 -318.6037 -243.8650
ENERGY: 1500000 1.9769 4.9663 0.3645 0.0000 -10716.9960 1353.9423 0.0000 0.0000 1785.9402 -7569.8057 300.3261 -9355.7459 -7593.2166 301.4144 -1054.6863 -987.1593 31272.4633 -357.5987 -290.6141
TCL: Running FEP window   7: Lambda1 0.3    Lambda2 0.35   [dLambda 0.04999999999999999]
TCL: Setting parameter firsttimestep to 0
TCL: Setting parameter alchLambda to 0.3
Info: NONBONDED TABLE R-SQUARED SPACING: 0.0625
Info: NONBONDED TABLE SIZE: 705 POINTS
TCL: Setting parameter alchLambda2 to 0.35
Info: NONBONDED TABLE R-SQUARED SPACING: 0.0625
Info: NONBONDED TABLE SIZE: 705 POINTS
TCL: Running for 1500000 steps
ETITLE: TS BOND ANGLE DIHED IMPRP ELECT VDW BOUNDARY MISC KINETIC TOTAL TEMP POTENTIAL TOTALAVG TEMPAVG PRESSURE GPRESSURE VOLUME PRESSAVG GPRESSAVG
ENERGY: 0 1.9769 4.9663 0.3645 0.0000 -10716.9950 1353.6954 0.0000 0.0000 1785.0666 -7570.9251 300.1792 -9355.9918 -7570.9251 300.1792 -1058.5418 -986.8806 31272.4633 -1058.5418 -986.8806
ENERGY: 300000 2.7431 7.9194 1.2948 0.0000 -10722.5943 1331.1556 0.0000 0.0000 1801.4746 -7578.0068 302.9384 -9379.4815 -7625.4054 298.6502 -1049.6770 -966.6744 30940.0045 -526.2116 -446.2872
ENERGY: 600000 0.5590 4.0553 0.7477 0.0000 -10927.2958 1497.3342 0.0000 0.0000 1764.0511 -7660.5486 296.6452 -9424.5997 -7614.0841 298.2715 119.8002 147.8989 30555.0085 -313.8992 -247.8327
ENERGY: 900000 2.4558 6.8456 1.5964 0.0000 -11081.2269 1573.1358 0.0000 0.0000 1782.4466 -7714.7468 299.7387 -9497.1934 -7626.3584 299.3488 546.3631 660.2893 30274.1420 -109.6981 -54.0392
ENERGY: 1200000 1.3471 4.1498 0.9216 0.0000 -10878.2763 1514.6615 0.0000 0.0000 1775.6452 -7581.5511 298.5949 -9357.1963 -7611.4831 301.1194 369.9048 443.9530 30946.0722 -12.2901 44.3903
ENERGY: 1500000 1.0853 3.7258 0.7262 0.0000 -10944.0946 1567.0618 0.0000 0.0000 1767.6443 -7603.8513 297.2495 -9371.4956 -7604.0564 300.5953 810.2545 907.4555 30581.3737 42.8007 97.4245
TCL: Running FEP window   8: Lambda1 0.35   Lambda2 0.39999999999999997 [dLambda 0.04999999999999999]
TCL: Setting parameter firsttimestep to 0
TCL: Setting parameter alchLambda to 0.35
Info: NONBONDED TABLE R-SQUARED SPACING: 0.0625
Info: NONBONDED TABLE SIZE: 705 POINTS
TCL: Setting parameter alchLambda2 to 0.39999999999999997
Info: NONBONDED TABLE R-SQUARED SPACING: 0.0625
Info: NONBONDED TABLE SIZE: 705 POINTS
TCL: Running for 1500000 steps
ETITLE: TS BOND ANGLE DIHED IMPRP ELECT VDW BOUNDARY MISC KINETIC TOTAL TEMP POTENTIAL TOTALAVG TEMPAVG PRESSURE GPRESSURE VOLUME PRESSAVG GPRESSAVG
ENERGY: 0 1.0853 3.7258 0.7262 0.0000 -10944.0942 1568.8459 0.0000 0.0000 1766.7645 -7602.9466 297.1015 -9369.7111 -7602.9466 297.1015 826.4843 922.3584 30581.3737 826.4843 922.3584
ENERGY: 300000 0.7848 7.5641 0.2688 0.0000 -10756.7149 1442.1521 0.0000 0.0000 1802.1405 -7503.8047 303.0504 -9305.9452 -7550.6573 303.2315 -100.7478 45.0758 30987.9070 71.1129 141.1157
ENERGY: 600000 3.1424 5.2033 0.2406 0.0000 -10781.6805 1403.9751 0.0000 0.0000 1739.6499 -7629.4693 292.5419 -9369.1192 -7579.2756 301.2737 -381.4972 -356.1610 30609.0426 -198.3952 -131.0781
ENERGY: 900000 2.8429 4.7102 0.4598 0.0000 -10869.4427 1427.1144 0.0000 0.0000 1830.7057 -7603.6097 307.8540 -9434.3155 -7575.6360 304.0654 -609.3940 -555.2351 31087.9700 -137.7415 -69.1523
ENERGY: 1200000 0.8100 8.3934 1.3464 0.0000 -10978.1222 1545.8182 0.0000 0.0000 1780.0329 -7641.7214 299.3328 -9421.7543 -7587.5062 302.4987 593.0102 633.5453 30459.7532 -125.3763 -60.0139
ENERGY: 1500000 0.4804 8.8838 0.4499 0.0000 -10786.6036 1470.6417 0.0000 0.0000 1761.9038 -7544.2441 296.2842 -9306.1479 -7583.6027 301.5245 636.3653 714.2654 30169.5999 -47.1234 19.2715
TCL: Running FEP window   9: Lambda1 0.39999999999999997 Lambda2 0.44999999999999996 [dLambda 0.04999999999999999]
TCL: Setting parameter firsttimestep to 0
TCL: Setting parameter alchLambda to 0.39999999999999997
Info: NONBONDED TABLE R-SQUARED SPACING: 0.0625
Info: NONBONDED TABLE SIZE: 705 POINTS
TCL: Setting parameter alchLambda2 to 0.44999999999999996
Info: NONBONDED TABLE R-SQUARED SPACING: 0.0625
Info: NONBONDED TABLE SIZE: 705 POINTS
TCL: Running for 1500000 steps
ETITLE: TS BOND ANGLE DIHED IMPRP ELECT VDW BOUNDARY MISC KINETIC TOTAL TEMP POTENTIAL TOTALAVG TEMPAVG PRESSURE GPRESSURE VOLUME PRESSAVG GPRESSAVG
ENERGY: 0 0.4804 8.8838 0.4499 0.0000 -10786.6055 1470.5913 0.0000 0.0000 1760.9975 -7545.2026 296.1317 -9306.2001 -7545.2026 296.1317 638.4109 723.4525 30169.5999 638.4109 723.4525
ENERGY: 300000 0.4254 5.8578 0.5000 0.0000 -10761.3390 1412.1411 0.0000 0.0000 1782.8163 -7559.5983 299.8008 -9342.4146 -7593.0427 301.1873 -202.0772 -105.2972 30629.0966 167.8436 214.5076
ENERGY: 600000 2.4178 5.0079 0.2196 0.0000 -10863.0868 1473.3891 0.0000 0.0000 1781.1579 -7600.8945 299.5219 -9382.0524 -7596.8092 300.8965 0.0230 171.8200 30513.4193 153.4477 219.3093
ENERGY: 900000 0.7067 5.8543 0.7782 0.0000 -10969.9919 1534.8756 0.0000 0.0000 1792.2871 -7635.4901 301.3934 -9427.7772 -7602.2807 300.5388 739.0850 809.8697 29994.8220 200.6496 272.5336
ENERGY: 1200000 2.3598 4.8811 0.9181 0.0000 -10843.9260 1424.7280 0.0000 0.0000 1814.4699 -7596.5690 305.1237 -9411.0389 -7589.0715 301.5769 -312.0335 -342.8041 30946.0271 100.7721 163.4240
ENERGY: 1500000 1.1194 3.7541 1.3517 0.0000 -10908.0456 1541.9495 0.0000 0.0000 1808.4387 -7551.4322 304.1095 -9359.8709 -7592.3241 301.5288 841.1262 837.1772 30562.8067 104.8838 165.3126
TCL: Running FEP window  10: Lambda1 0.44999999999999996 Lambda2 0.49999999999999994 [dLambda 0.04999999999999999]
TCL: Setting parameter firsttimestep to 0
TCL: Setting parameter alchLambda to 0.44999999999999996
Info: NONBONDED TABLE R-SQUARED SPACING: 0.0625
Info: NONBONDED TABLE SIZE: 705 POINTS
TCL: Setting parameter alchLambda2 to 0.49999999999999994
Info: NONBONDED TABLE R-SQUARED SPACING: 0.0625
Info: NONBONDED TABLE SIZE: 705 POINTS
TCL: Running for 1500000 steps
ETITLE: TS BOND ANGLE DIHED IMPRP ELECT VDW BOUNDARY MISC KINETIC TOTAL TEMP POTENTIAL TOTALAVG TEMPAVG PRESSURE GPRESSURE VOLUME PRESSAVG GPRESSAVG
ENERGY: 0 1.1194 3.7541 1.3517 0.0000 -10908.0470 1541.7854 0.0000 0.0000 1807.5383 -7552.4981 303.9581 -9360.0364 -7552.4981 303.9581 756.1490 840.9481 30562.8067 756.1490 840.9481
ENERGY: 300000 0.8544 5.8791 0.9468 0.0000 -10954.9535 1588.1064 0.0000 0.0000 1792.0965 -7567.0703 301.3614 -9359.1668 -7549.2477 303.0168 1469.2508 1529.8635 29809.6712 711.1409 763.1710
ENERGY: 600000 1.0879 11.4460 0.6927 0.0000 -10809.8683 1414.8065 0.0000 0.0000 1713.0740 -7668.7611 288.0729 -9381.8352 -7588.5630 298.2246 -123.0292 -95.2875 30219.2924 153.7977 204.7268
ENERGY: 900000 0.4674 5.3098 0.0722 0.0000 -10834.1434 1443.7740 0.0000 0.0000 1819.4444 -7565.0755 305.9603 -9384.5199 -7589.1041 300.6126 -270.2608 -263.2348 30919.2429 174.5964 216.0572
ENERGY: 1200000 1.3604 2.7094 0.9084 0.0000 -10837.6248 1511.6643 0.0000 0.0000 1779.6335 -7541.3488 299.2656 -9320.9823 -7586.2558 300.7275 614.2768 653.6689 30549.4590 140.6093 184.0111
ENERGY: 1500000 2.4545 7.7466 1.7389 0.0000 -10693.8153 1381.2207 0.0000 0.0000 1778.6713 -7521.9833 299.1038 -9300.6546 -7591.2610 299.7596 -644.1615 -530.7562 31110.6878 67.4214 116.2629
TCL: Running FEP window  11: Lambda1 0.49999999999999994 Lambda2 0.5499999999999999 [dLambda 0.04999999999999999]
TCL: Setting parameter firsttimestep to 0
TCL: Setting parameter alchLambda to 0.49999999999999994
Info: NONBONDED TABLE R-SQUARED SPACING: 0.0625
Info: NONBONDED TABLE SIZE: 705 POINTS
TCL: Setting parameter alchLambda2 to 0.5499999999999999
Info: NONBONDED TABLE R-SQUARED SPACING: 0.0625
Info: NONBONDED TABLE SIZE: 705 POINTS
TCL: Running for 1500000 steps
ETITLE: TS BOND ANGLE DIHED IMPRP ELECT VDW BOUNDARY MISC KINETIC TOTAL TEMP POTENTIAL TOTALAVG TEMPAVG PRESSURE GPRESSURE VOLUME PRESSAVG GPRESSAVG
ENERGY: 0 2.4545 7.7466 1.7389 0.0000 -10693.8160 1380.8341 0.0000 0.0000 1777.7988 -7523.2432 298.9571 -9301.0420 -7523.2432 298.9571 -607.7723 -529.1364 31110.6878 -607.7723 -529.1364
ENERGY: 300000 1.4535 4.9869 2.8417 0.0000 -10937.3679 1560.4327 0.0000 0.0000 1829.5125 -7538.1407 307.6533 -9367.6532 -7538.8760 301.0237 1060.7772 1069.8384 30350.0349 19.9979 79.7566
ENERGY: 600000 1.0938 3.8485 0.1362 0.0000 -10900.0799 1482.0421 0.0000 0.0000 1809.5806 -7603.3787 304.3016 -9412.9594 -7568.5191 301.2648 -52.5734 -49.0860 30846.1810 -51.3932 -6.1558
ENERGY: 900000 2.5234 8.0371 0.3518 0.0000 -10842.8649 1442.0463 0.0000 0.0000 1815.5086 -7574.3978 305.2984 -9389.9063 -7580.5448 301.2864 -93.8056 -51.3769 30435.3201 -88.2696 -43.7947
ENERGY: 1200000 0.5728 7.9305 0.2928 0.0000 -10986.3105 1594.9925 0.0000 0.0000 1802.7800 -7579.7419 303.1580 -9382.5219 -7583.7510 301.7143 1063.5421 1149.9450 30602.5812 -125.8755 -77.9700
ENERGY: 1500000 2.9997 6.2081 0.3976 0.0000 -10804.2702 1414.5998 0.0000 0.0000 1795.1459 -7584.9190 301.8742 -9380.0649 -7590.1517 301.3456 -493.2359 -441.6934 30920.7498 -207.3121 -158.3484
TCL: Running FEP window  12: Lambda1 0.5499999999999999 Lambda2 0.6    [dLambda 0.050000000000000044]
TCL: Setting parameter firsttimestep to 0
TCL: Setting parameter alchLambda to 0.5499999999999999
Info: NONBONDED TABLE R-SQUARED SPACING: 0.0625
Info: NONBONDED TABLE SIZE: 705 POINTS
TCL: Setting parameter alchLambda2 to 0.6
Info: NONBONDED TABLE R-SQUARED SPACING: 0.0625
Info: NONBONDED TABLE SIZE: 705 POINTS
TCL: Running for 1500000 steps
ETITLE: TS BOND ANGLE DIHED IMPRP ELECT VDW BOUNDARY MISC KINETIC TOTAL TEMP POTENTIAL TOTALAVG TEMPAVG PRESSURE GPRESSURE VOLUME PRESSAVG GPRESSAVG
ENERGY: 0 2.9997 6.2081 0.3976 0.0000 -10804.5092 1414.6017 0.0000 0.0000 1794.2822 -7586.0199 301.7290 -9380.3021 -7586.0199 301.7290 -516.9026 -436.2985 30920.7498 -516.9026 -436.2985
ENERGY: 300000 3.4434 10.4444 0.6314 0.0000 -10861.7656 1425.7917 0.0000 0.0000 1785.2282 -7636.2265 300.2064 -9421.4547 -7611.9199 299.5790 -478.7117 -468.8283 30848.5755 -215.9253 -147.9117
ENERGY: 600000 0.9775 7.5798 1.5159 0.0000 -10810.6119 1543.2571 0.0000 0.0000 1753.8183 -7503.4633 294.9245 -9257.2816 -7593.9924 300.5111 878.3851 918.2384 30912.8828 -126.5291 -61.4197
ENERGY: 900000 3.4481 7.0721 0.1832 0.0000 -10712.9652 1369.5188 0.0000 0.0000 1803.0193 -7529.7237 303.1982 -9332.7430 -7591.1091 299.7089 -653.1850 -568.2705 31162.0104 -351.4184 -282.4025
ENERGY: 1200000 3.1478 5.1225 0.2578 0.0000 -10960.1796 1508.7420 0.0000 0.0000 1749.0420 -7693.8676 294.1213 -9442.9095 -7602.1620 298.7769 208.3822 280.3957 30746.5009 -217.2850 -147.9732
ENERGY: 1500000 0.5495 2.9263 0.3717 0.0000 -10944.6226 1527.6764 0.0000 0.0000 1764.2752 -7648.8236 296.6829 -9413.0987 -7604.1547 299.5565 680.6024 783.5736 30174.1000 -108.3673 -36.5024
TCL: Running FEP window  13: Lambda1 0.6    Lambda2 0.65   [dLambda 0.050000000000000044]
TCL: Setting parameter firsttimestep to 0
TCL: Setting parameter alchLambda to 0.6
Info: NONBONDED TABLE R-SQUARED SPACING: 0.0625
Info: NONBONDED TABLE SIZE: 705 POINTS
TCL: Setting parameter alchLambda2 to 0.65
Info: NONBONDED TABLE R-SQUARED SPACING: 0.0625
Info: NONBONDED TABLE SIZE: 705 POINTS
TCL: Running for 1500000 steps
ETITLE: TS BOND ANGLE DIHED IMPRP ELECT VDW BOUNDARY MISC KINETIC TOTAL TEMP POTENTIAL TOTALAVG TEMPAVG PRESSURE GPRESSURE VOLUME PRESSAVG GPRESSAVG
ENERGY: 0 0.5495 2.9263 0.3717 0.0000 -10944.5837 1527.2357 0.0000 0.0000 1763.4322 -7650.0684 296.5412 -9413.5006 -7650.0684 296.5412 684.3646 783.5349 30174.1000 684.3646 783.5349
ENERGY: 300000 1.4310 6.5175 0.9483 0.0000 -10880.3249 1415.1631 0.0000 0.0000 1741.2318 -7715.0331 292.8079 -9456.2649 -7618.0303 298.7609 -683.4463 -573.6594 30620.1371 -451.6144 -372.5396
ENERGY: 600000 0.8065 5.6191 0.9147 0.0000 -10724.1712 1394.8303 0.0000 0.0000 1800.0260 -7521.9746 302.6948 -9322.0006 -7592.5301 300.3214 -522.4687 -426.4518 31212.9863 -215.3440 -139.1636
ENERGY: 900000 2.2230 6.8443 0.3633 0.0000 -11017.1082 1575.4073 0.0000 0.0000 1803.7014 -7628.5689 303.3129 -9432.2703 -7588.2458 300.6757 684.7239 746.1544 30627.3695 -180.4272 -109.7516
ENERGY: 1200000 0.6369 7.9041 0.2969 0.0000 -10738.8954 1422.0033 0.0000 0.0000 1825.0117 -7483.0424 306.8965 -9308.0542 -7574.5590 300.1780 47.0467 117.7362 30710.1640 -194.3946 -129.8867
ENERGY: 1500000 0.2250 3.5714 0.1732 0.0000 -10771.4594 1425.1786 0.0000 0.0000 1816.7456 -7525.5656 305.5064 -9342.3113 -7575.1075 300.2444 -143.8800 -30.9144 30776.9959 -186.9361 -115.6686
TCL: Running FEP window  14: Lambda1 0.65   Lambda2 0.7000000000000001 [dLambda 0.050000000000000044]
TCL: Setting parameter firsttimestep to 0
TCL: Setting parameter alchLambda to 0.65
Info: NONBONDED TABLE R-SQUARED SPACING: 0.0625
Info: NONBONDED TABLE SIZE: 705 POINTS
TCL: Setting parameter alchLambda2 to 0.7000000000000001
Info: NONBONDED TABLE R-SQUARED SPACING: 0.0625
Info: NONBONDED TABLE SIZE: 705 POINTS
TCL: Running for 1500000 steps
ETITLE: TS BOND ANGLE DIHED IMPRP ELECT VDW BOUNDARY MISC KINETIC TOTAL TEMP POTENTIAL TOTALAVG TEMPAVG PRESSURE GPRESSURE VOLUME PRESSAVG GPRESSAVG
ENERGY: 0 0.2250 3.5714 0.1732 0.0000 -10771.5163 1424.6610 0.0000 0.0000 1815.8908 -7526.9951 305.3627 -9342.8858 -7526.9951 305.3627 -116.4052 -28.3810 30776.9959 -116.4052 -28.3810
ENERGY: 300000 0.7012 5.3874 0.8051 0.0000 -10885.9932 1394.6599 0.0000 0.0000 1783.7407 -7700.6990 299.9563 -9484.4397 -7616.7929 299.5526 -665.4870 -571.5665 30449.7320 -248.1649 -154.9029
ENERGY: 600000 2.4097 5.5909 0.8666 0.0000 -10863.3894 1459.2449 0.0000 0.0000 1771.1443 -7624.1331 297.8380 -9395.2774 -7608.6335 300.7490 110.5248 168.6935 30472.8719 -228.1905 -154.3783
ENERGY: 900000 2.2176 5.8158 1.6246 0.0000 -10924.2861 1485.3242 0.0000 0.0000 1801.0380 -7628.2659 302.8650 -9429.3039 -7615.2633 300.2802 8.5641 49.0452 30958.5609 -275.9101 -210.2382
ENERGY: 1200000 1.9254 2.5146 0.3531 0.0000 -10671.6465 1338.5043 0.0000 0.0000 1807.6004 -7520.7488 303.9685 -9328.3491 -7596.2870 300.9564 -905.4757 -816.4500 31193.5881 -272.6245 -209.1721
ENERGY: 1500000 0.4464 6.2452 0.5781 0.0000 -10857.2739 1475.2746 0.0000 0.0000 1767.0347 -7607.6950 297.1470 -9374.7297 -7595.5950 301.2650 157.1419 205.7382 30841.9510 -209.8674 -145.8587
TCL: Running FEP window  15: Lambda1 0.7000000000000001 Lambda2 0.7500000000000001 [dLambda 0.050000000000000044]
TCL: Setting parameter firsttimestep to 0
TCL: Setting parameter alchLambda to 0.7000000000000001
Info: NONBONDED TABLE R-SQUARED SPACING: 0.0625
Info: NONBONDED TABLE SIZE: 705 POINTS
TCL: Setting parameter alchLambda2 to 0.7500000000000001
Info: NONBONDED TABLE R-SQUARED SPACING: 0.0625
Info: NONBONDED TABLE SIZE: 705 POINTS
TCL: Running for 1500000 steps
ETITLE: TS BOND ANGLE DIHED IMPRP ELECT VDW BOUNDARY MISC KINETIC TOTAL TEMP POTENTIAL TOTALAVG TEMPAVG PRESSURE GPRESSURE VOLUME PRESSAVG GPRESSAVG
ENERGY: 0 0.4464 6.2452 0.5781 0.0000 -10857.6127 1474.9764 0.0000 0.0000 1766.1624 -7609.2042 297.0003 -9375.3666 -7609.2042 297.0003 131.0261 208.0991 30841.9510 131.0261 208.0991
ENERGY: 300000 0.3021 6.7892 0.2206 0.0000 -10911.8063 1459.2868 0.0000 0.0000 1784.9251 -7660.2824 300.1554 -9445.2076 -7632.4273 300.9509 -213.4582 -170.5281 30733.3854 -50.3479 8.9399
ENERGY: 600000 0.4171 6.9548 0.2878 0.0000 -10983.5864 1526.0878 0.0000 0.0000 1733.2229 -7716.6160 291.4611 -9449.8389 -7636.7373 299.8183 236.2647 342.8593 30664.2641 -26.2001 57.6108
ENERGY: 900000 1.0263 7.0327 0.5144 0.0000 -10946.7463 1530.6024 0.0000 0.0000 1794.0876 -7613.4829 301.6962 -9407.5705 -7638.0264 299.0049 541.4351 621.3681 30495.0742 27.3716 97.4801
ENERGY: 1200000 0.5422 6.8580 0.1071 0.0000 -10937.8138 1479.4372 0.0000 0.0000 1735.3109 -7715.5584 291.8123 -9450.8693 -7635.8195 299.1926 19.5566 96.6934 30668.3757 1.5921 69.9233
ENERGY: 1500000 1.3975 10.9749 0.2818 0.0000 -10761.5393 1372.3541 0.0000 0.0000 1770.4471 -7606.0839 297.7208 -9376.5309 -7617.2299 299.3958 -521.0139 -462.5917 30479.9190 2.2630 72.6111
TCL: Running FEP window  16: Lambda1 0.7500000000000001 Lambda2 0.8000000000000002 [dLambda 0.050000000000000044]
TCL: Setting parameter firsttimestep to 0
TCL: Setting parameter alchLambda to 0.7500000000000001
Info: NONBONDED TABLE R-SQUARED SPACING: 0.0625
Info: NONBONDED TABLE SIZE: 705 POINTS
TCL: Setting parameter alchLambda2 to 0.8000000000000002
Info: NONBONDED TABLE R-SQUARED SPACING: 0.0625
Info: NONBONDED TABLE SIZE: 705 POINTS
TCL: Running for 1500000 steps
ETITLE: TS BOND ANGLE DIHED IMPRP ELECT VDW BOUNDARY MISC KINETIC TOTAL TEMP POTENTIAL TOTALAVG TEMPAVG PRESSURE GPRESSURE VOLUME PRESSAVG GPRESSAVG
ENERGY: 0 1.3975 10.9749 0.2818 0.0000 -10761.5221 1372.4914 0.0000 0.0000 1769.5991 -7606.7774 297.5782 -9376.3765 -7606.7774 297.5782 -532.5979 -452.8936 30479.9190 -532.5979 -452.8936
ENERGY: 300000 0.2897 10.5837 0.6330 0.0000 -10958.1556 1523.3612 0.0000 0.0000 1806.2530 -7617.0349 303.7420 -9423.2880 -7634.7900 297.2756 403.1430 392.4281 30785.9772 195.6285 229.9400
ENERGY: 600000 1.0757 5.0614 0.3033 0.0000 -10918.7889 1530.0620 0.0000 0.0000 1845.0412 -7537.2453 310.2647 -9382.2865 -7602.9049 302.2104 714.9252 781.0649 30545.7239 178.3911 219.3100
ENERGY: 900000 2.3657 6.6922 0.3658 0.0000 -10717.6120 1415.5115 0.0000 0.0000 1784.9938 -7507.6830 300.1670 -9292.6768 -7589.2765 301.7362 -104.8162 -64.7347 31160.3990 183.1212 223.1419
ENERGY: 1200000 0.8843 4.6751 0.3551 0.0000 -10936.7100 1500.7858 0.0000 0.0000 1784.1216 -7645.8881 300.0203 -9430.0097 -7602.9366 300.9343 363.7959 371.9744 30556.8065 128.0543 163.0992
ENERGY: 1500000 1.9277 3.9146 1.2060 0.0000 -10733.8474 1412.5037 0.0000 0.0000 1800.1431 -7514.1522 302.7145 -9314.2953 -7590.1915 301.6360 -69.8840 10.5093 30762.4953 148.0772 188.8714
TCL: Running FEP window  17: Lambda1 0.8000000000000002 Lambda2 0.8500000000000002 [dLambda 0.050000000000000044]
TCL: Setting parameter firsttimestep to 0
TCL: Setting parameter alchLambda to 0.8000000000000002
Info: NONBONDED TABLE R-SQUARED SPACING: 0.0625
Info: NONBONDED TABLE SIZE: 705 POINTS
TCL: Setting parameter alchLambda2 to 0.8500000000000002
Info: NONBONDED TABLE R-SQUARED SPACING: 0.0625
Info: NONBONDED TABLE SIZE: 705 POINTS
TCL: Running for 1500000 steps
ETITLE: TS BOND ANGLE DIHED IMPRP ELECT VDW BOUNDARY MISC KINETIC TOTAL TEMP POTENTIAL TOTALAVG TEMPAVG PRESSURE GPRESSURE VOLUME PRESSAVG GPRESSAVG
ENERGY: 0 1.9277 3.9146 1.2060 0.0000 -10733.8542 1412.6629 0.0000 0.0000 1799.2806 -7514.8623 302.5695 -9314.1429 -7514.8623 302.5695 -68.5372 20.1354 30762.4953 -68.5372 20.1354
ENERGY: 300000 0.4750 8.3228 0.5708 0.0000 -10844.1503 1448.4540 0.0000 0.0000 1755.6989 -7630.6289 295.2407 -9386.3278 -7582.6643 299.1896 12.1716 93.0638 30578.9085 -268.5846 -193.0983
ENERGY: 600000 0.5435 5.9093 1.2641 0.0000 -10790.7053 1361.8460 0.0000 0.0000 1800.0339 -7621.1085 302.6962 -9421.1424 -7592.2441 300.2857 -649.2455 -640.5942 30786.8810 -125.8959 -65.2400
ENERGY: 900000 4.1478 6.7622 0.4634 0.0000 -10860.7186 1480.3488 0.0000 0.0000 1800.5056 -7568.4908 302.7755 -9368.9964 -7587.9312 301.0334 93.7150 176.2126 30752.4307 -55.2611 13.0478
ENERGY: 1200000 0.5478 4.4422 1.4200 0.0000 -10757.4455 1410.5888 0.0000 0.0000 1753.9618 -7586.4848 294.9486 -9340.4466 -7589.6358 300.8003 -137.8105 -85.7664 30639.7599 -116.8448 -48.4723
ENERGY: 1500000 1.6173 8.4766 1.4231 0.0000 -10991.6595 1487.4070 0.0000 0.0000 1778.7753 -7713.9602 299.1213 -9492.7355 -7600.3889 300.3684 216.1963 325.1421 30085.6090 -42.4878 26.0765
TCL: Running FEP window  18: Lambda1 0.8500000000000002 Lambda2 0.9000000000000002 [dLambda 0.050000000000000044]
TCL: Setting parameter firsttimestep to 0
TCL: Setting parameter alchLambda to 0.8500000000000002
Info: NONBONDED TABLE R-SQUARED SPACING: 0.0625
Info: NONBONDED TABLE SIZE: 705 POINTS
TCL: Setting parameter alchLambda2 to 0.9000000000000002
Info: NONBONDED TABLE R-SQUARED SPACING: 0.0625
Info: NONBONDED TABLE SIZE: 705 POINTS
TCL: Running for 1500000 steps
ETITLE: TS BOND ANGLE DIHED IMPRP ELECT VDW BOUNDARY MISC KINETIC TOTAL TEMP POTENTIAL TOTALAVG TEMPAVG PRESSURE GPRESSURE VOLUME PRESSAVG GPRESSAVG
ENERGY: 0 1.6173 8.4766 1.4231 0.0000 -10991.9428 1487.0713 0.0000 0.0000 1777.8903 -7715.4643 298.9725 -9493.3545 -7715.4643 298.9725 251.6030 327.2627 30085.6090 251.6030 327.2627
ENERGY: 300000 1.3290 8.7032 0.8905 0.0000 -10946.8079 1469.6487 0.0000 0.0000 1820.4336 -7645.8029 306.1266 -9466.2365 -7640.5360 300.1763 -19.0627 -71.5187 30642.4563 -99.8152 -57.8497
ENERGY: 600000 1.6103 7.8243 0.7111 0.0000 -10798.3754 1451.6836 0.0000 0.0000 1798.6912 -7537.8549 302.4704 -9336.5461 -7630.1353 299.2848 19.2848 92.4594 31081.0768 -11.2883 38.8781
ENERGY: 900000 1.8517 6.5581 0.3234 0.0000 -10838.3538 1476.4220 0.0000 0.0000 1778.2904 -7574.9081 299.0398 -9353.1985 -7631.8634 297.8492 127.5821 167.6140 30997.4593 51.9988 105.0301
ENERGY: 1200000 1.4239 6.6572 0.5968 0.0000 -10880.1980 1483.7792 0.0000 0.0000 1753.0809 -7634.6600 294.8005 -9387.7409 -7625.5947 298.3394 91.9912 153.3816 30715.9567 84.5213 145.7760
ENERGY: 1500000 0.4709 5.1522 0.7999 0.0000 -10800.9137 1427.8175 0.0000 0.0000 1814.1629 -7552.5102 305.0721 -9366.6731 -7610.3349 299.1626 -185.2195 -176.7115 31039.4267 31.3941 89.9120
TCL: Running FEP window  19: Lambda1 0.9000000000000002 Lambda2 0.9500000000000003 [dLambda 0.050000000000000044]
TCL: Setting parameter firsttimestep to 0
TCL: Setting parameter alchLambda to 0.9000000000000002
Info: NONBONDED TABLE R-SQUARED SPACING: 0.0625
Info: NONBONDED TABLE SIZE: 705 POINTS
TCL: Setting parameter alchLambda2 to 0.9500000000000003
Info: NONBONDED TABLE R-SQUARED SPACING: 0.0625
Info: NONBONDED TABLE SIZE: 705 POINTS
TCL: Running for 1500000 steps
ETITLE: TS BOND ANGLE DIHED IMPRP ELECT VDW BOUNDARY MISC KINETIC TOTAL TEMP POTENTIAL TOTALAVG TEMPAVG PRESSURE GPRESSURE VOLUME PRESSAVG GPRESSAVG
ENERGY: 0 0.4709 5.1522 0.7999 0.0000 -10800.9912 1428.1082 0.0000 0.0000 1813.2296 -7553.2304 304.9152 -9366.4600 -7553.2304 304.9152 -239.7431 -162.9025 31039.4267 -239.7431 -162.9025
ENERGY: 300000 0.1467 8.9478 0.9107 0.0000 -10841.7998 1440.9310 0.0000 0.0000 1743.4933 -7647.3703 293.1882 -9390.8636 -7620.8856 295.5511 -287.5690 -288.3081 30891.0762 -47.8340 -7.1081
ENERGY: 600000 1.8849 5.1256 1.3957 0.0000 -10803.1399 1420.4774 0.0000 0.0000 1784.0299 -7590.2263 300.0049 -9374.2562 -7617.2079 296.9036 -283.4146 -240.4492 30762.7440 -207.1556 -146.3174
ENERGY: 900000 0.4327 4.5467 0.6229 0.0000 -10676.2342 1308.7207 0.0000 0.0000 1792.9345 -7568.9766 301.5023 -9361.9111 -7600.2063 298.2772 -845.3323 -798.7286 30565.1122 -277.0216 -225.5238
ENERGY: 1200000 1.2900 6.2166 0.7242 0.0000 -10810.6960 1460.9187 0.0000 0.0000 1808.3871 -7533.1593 304.1008 -9341.5464 -7605.8342 297.7702 109.1894 204.9787 30811.6557 -191.1438 -138.5767
ENERGY: 1500000 1.8774 5.1393 1.3161 0.0000 -10801.7196 1461.9646 0.0000 0.0000 1798.9110 -7532.5112 302.5073 -9331.4222 -7598.9842 298.3761 305.5106 399.4859 30650.0902 -115.2526 -61.9661
TCL: Running FEP window  20: Lambda1 0.9500000000000003 Lambda2 1.0    [dLambda 0.04999999999999971]
TCL: Setting parameter firsttimestep to 0
TCL: Setting parameter alchLambda to 0.9500000000000003
Info: NONBONDED TABLE R-SQUARED SPACING: 0.0625
Info: NONBONDED TABLE SIZE: 705 POINTS
TCL: Setting parameter alchLambda2 to 1.0
Info: NONBONDED TABLE R-SQUARED SPACING: 0.0625
Info: NONBONDED TABLE SIZE: 705 POINTS
TCL: Running for 1500000 steps
ETITLE: TS BOND ANGLE DIHED IMPRP ELECT VDW BOUNDARY MISC KINETIC TOTAL TEMP POTENTIAL TOTALAVG TEMPAVG PRESSURE GPRESSURE VOLUME PRESSAVG GPRESSAVG
ENERGY: 0 1.8774 5.1393 1.3161 0.0000 -10802.3229 1462.2370 0.0000 0.0000 1797.9744 -7533.7787 302.3498 -9331.7531 -7533.7787 302.3498 324.4537 416.6920 30650.0902 324.4537 416.6920
ENERGY: 300000 0.7568 6.6041 0.8035 0.0000 -10828.6390 1399.6465 0.0000 0.0000 1784.8250 -7636.0031 300.1386 -9420.8280 -7606.4241 301.0905 -442.1270 -427.5192 30776.9404 -80.6875 -45.3855
ENERGY: 600000 0.2295 5.7598 0.7240 0.0000 -10744.3264 1375.8913 0.0000 0.0000 1788.6377 -7573.0840 300.7798 -9361.7218 -7603.5904 301.5369 -575.0335 -566.8364 30976.9514 -93.3015 -60.1202
ENERGY: 900000 1.1678 7.6199 0.6246 0.0000 -10945.9419 1543.5308 0.0000 0.0000 1779.1946 -7613.8042 299.1918 -9392.9987 -7619.8288 300.7207 569.0594 655.0569 30883.2651 -20.7212 21.9086
ENERGY: 1200000 0.7387 7.1770 1.4413 0.0000 -10681.4972 1353.3523 0.0000 0.0000 1848.8658 -7469.9222 310.9078 -9318.7880 -7599.0411 301.1299 -590.9287 -604.6678 30969.0781 -110.0760 -70.5235
ENERGY: 1500000 0.8088 6.9467 0.4159 0.0000 -10773.0655 1398.8584 0.0000 0.0000 1753.7066 -7612.3291 294.9057 -9366.0357 -7592.2126 301.2824 -612.9224 -518.9516 31320.5842 -121.2849 -75.5121
TCL: Exiting due to exit command.
