Info: SIMULATION PARAMETERS:
Info: TIMESTEP               2
Info: NUMBER OF STEPS        0
Info: STEPS PER CYCLE        10
Info: PERIODIC CELL BASIS 1  41.123 0 0
Info: PERIODIC CELL BASIS 2  0 39.93 0
Info: PERIODIC CELL BASIS 3  0 0 41.374
Info: PERIODIC CELL CENTER   0 0 0
Info: WRAPPING WATERS AROUND PERIODIC BOUNDARIES ON OUTPUT.
Info: WRAPPING ALL CLUSTERS AROUND PERIODIC BOUNDARIES ON OUTPUT.
Info: FIRST LDB TIMESTEP     50
Info: LAST LDB TIMESTEP     -1
Info: HOM BACKGROUND SCALING 1
Info: PME BACKGROUND SCALING 1
Info: MIN ATOMS PER PATCH    40
Info: EMPTY PATCH LOAD       40 ATOMS
Info: INITIAL TEMPERATURE    300
Info: CENTER OF MASS MOVING INITIALLY? NO
Info: DIELECTRIC             1
Info: EXCLUDE                SCALED ONE-FOUR
Info: 1-4 ELECTROSTATICS SCALED BY 0.833333
Info: MODIFIED 1-4 VDW PARAMETERS WILL BE USED
Info: DCD FILENAME           mobley_8746821_min.dcd
Info: DCD FREQUENCY          5000
Info: DCD FIRST STEP         5000
Info: DCD FILE WILL CONTAIN UNIT CELL DATA
Info: XST FILENAME           mobley_8746821_min.xst
Info: XST FREQUENCY          5000
Info: NO VELOCITY DCD OUTPUT
Info: NO FORCE DCD OUTPUT
Info: OUTPUT FILENAME        mobley_8746821_min
Info: BINARY OUTPUT FILES WILL BE USED
Info: RESTART FILENAME       mobley_8746821_min.restart
Info: RESTART FREQUENCY      5000
Info: BINARY RESTART FILES WILL BE USED
Info: CUTOFF                 9
Info: PAIRLIST DISTANCE      11
Info: PAIRLIST SHRINK RATE   0.01
Info: PAIRLIST GROW RATE     0.01
Info: PAIRLIST TRIGGER       0.3
Info: PAIRLISTS PER CYCLE    2
Info: PAIRLISTS ENABLED
Info: MARGIN                 8
Info: HYDROGEN GROUP CUTOFF  2.5
Info: PATCH DIMENSION        21.5
Info: ENERGY OUTPUT STEPS    5000
Info: ENERGY EVALUATION STEPS    5000
Info: OUTPUT ENERGY PRECISION 4
Info: CROSSTERM ENERGY INCLUDED IN DIHEDRAL
Info: TIMING OUTPUT STEPS    50000
Info: PRESSURE OUTPUT STEPS  5000
Info: LANGEVIN DYNAMICS ACTIVE
Info: LANGEVIN TEMPERATURE   300
Info: LANGEVIN USING BBK INTEGRATOR
Info: LANGEVIN DAMPING COEFFICIENT IS 1 INVERSE PS
Info: LANGEVIN DYNAMICS APPLIED TO HYDROGENS
Info: LANGEVIN PISTON PRESSURE CONTROL ACTIVE
Info:        TARGET PRESSURE IS 1.01325 BAR
Info:     OSCILLATION PERIOD IS 50 FS
Info:             DECAY TIME IS 25 FS
Info:     PISTON TEMPERATURE IS 300 K
Info:       PRESSURE CONTROL IS GROUP-BASED
Info:    INITIAL STRAIN RATE IS 0 0 0
Info:       CELL FLUCTUATION IS ISOTROPIC
Info: PARTICLE MESH EWALD (PME) ACTIVE
Info: PME TOLERANCE               1e-06
Info: PME EWALD COEFFICIENT       0.348832
Info: PME INTERPOLATION ORDER     4
Info: PME GRID DIMENSIONS         44 40 44
Info: PME MAXIMUM GRID SPACING    1
Info: FULL ELECTROSTATIC EVALUATION FREQUENCY      2
Info: USING VERLET I (r-RESPA) MTS SCHEME.
Info: C1 SPLITTING OF LONG RANGE ELECTROSTATICS
Info: PLACING ATOMS IN PATCHES BY HYDROGEN GROUPS
Info: RIGID BONDS TO HYDROGEN : ALL
Info:         ERROR TOLERANCE : 1e-08
Info:          MAX ITERATIONS : 100
Info: RIGID WATER USING SETTLE ALGORITHM
Info: RANDOM NUMBER SEED     1741398867
Info: USE HYDROGEN BONDS?    NO
Info: Using AMBER format force field!
Info: AMBER PARM FILE        mobley_8746821.prmtop
Info: COORDINATE PDB         mobley_8746821.pdb
Info: Exclusions will be read from PARM file!
Info: SCNB (VDW SCALING)     2
Info: USING ARITHMETIC MEAN TO COMBINE L-J SIGMA PARAMETERS
Info: SUMMARY OF PARAMETERS:
Info: 8 BONDS
Info: 10 ANGLES
Info:   10 HARMONIC
Info:   0 COSINE-BASED
Info: 5 DIHEDRAL
Info: 0 IMPROPER
Info: 0 CROSSTERM
Info: 0 VDW
Info: 36 VDW_PAIRS
Info: 0 NBTHOLE_PAIRS
Info: STRUCTURE SUMMARY:
Info: 4940 ATOMS
Info: 4940 BONDS
Info: 28 ANGLES
Info: 38 DIHEDRALS
Info: 0 IMPROPERS
Info: 0 CROSSTERMS
Info: 4997 EXCLUSIONS
Info: 4932 RIGID BONDS
Info: 9888 DEGREES OF FREEDOM
Info: 1649 HYDROGEN GROUPS
Info: 4 ATOMS IN LARGEST HYDROGEN GROUP
Info: 1649 MIGRATION GROUPS
Info: 4 ATOMS IN LARGEST MIGRATION GROUP
Info: TOTAL MASS = 29671.4 amu
Info: TOTAL CHARGE = 0.000100052 e
Info: MASS DENSITY = 0.725247 g/cm^3
Info: ATOM DENSITY = 0.0727135 atoms/A^3
Info: ADDED 0 IMPLICIT EXCLUSIONS
Info: NONBONDED TABLE R-SQUARED SPACING: 0.0625
Info: NONBONDED TABLE SIZE: 705 POINTS
Info: REMOVING COM VELOCITY 0.0564216 -0.129439 -0.0730649
TCL: Minimizing for 2000 steps
ETITLE: TS BOND ANGLE DIHED IMPRP ELECT VDW BOUNDARY MISC KINETIC TOTAL TEMP POTENTIAL TOTAL3 TEMPAVG PRESSURE GPRESSURE VOLUME PRESSAVG GPRESSAVG
ENERGY: 0 0.5776 0.4421 0.0002 0.0000 -15445.8260 1770.8313 0.0000 0.0000 0.0000 -13673.9749 0.0000 -13673.9749 -13673.9749 0.0000 11325.4152 -15767.3817 67937.8205 11325.4152 -15767.3817
ENERGY: 400 4.0475 2.5839 0.2754 0.0000 -20787.7676 3046.8524 0.0000 0.0000 0.0000 -17734.0084 0.0000 -17734.0084 -17734.0084 0.0000 16053.1697 15925.8355 67937.8205 16053.1697 15925.8355
ENERGY: 800 0.9573 0.7251 0.0126 0.0000 -21886.9775 3564.9313 0.0000 0.0000 0.0000 -18320.3512 0.0000 -18320.3512 -18320.3512 0.0000 18460.1697 18275.1525 67937.8205 18460.1697 18275.1525
ENERGY: 1200 3.2163 1.7150 0.1620 0.0000 -22348.8861 3781.7959 0.0000 0.0000 0.0000 -18561.9970 0.0000 -18561.9970 -18561.9970 0.0000 19460.2318 19242.6587 67937.8205 19460.2318 19242.6587
ENERGY: 1600 0.3347 0.4700 0.0148 0.0000 -22606.2732 3913.6362 0.0000 0.0000 0.0000 -18691.8175 0.0000 -18691.8175 -18691.8175 0.0000 20135.6171 19935.7347 67937.8205 20135.6171 19935.7347
ENERGY: 2000 0.3586 0.4119 0.0144 0.0000 -22737.7456 3975.5440 0.0000 0.0000 0.0000 -18761.4168 0.0000 -18761.4168 -18761.4168 0.0000 20432.4143 20204.6485 67937.8205 20432.4143 20204.6485
TCL: Exiting due to exit command.
Info: NAMD 3.0.1 for Linux-x86_64-multicore
Info: Please visit http://www.ks.uiuc.edu/Research/namd/
Info: for updates, documentation, and support information.
Info: Please cite Phillips et al., J. Chem. Phys. 153:044130 (2020) doi:10.1063/5.0014475
Info: in all publications reporting results obtained with NAMD.
Info: Based on Charm++/Converse 80000 for multicore-linux-x86_64-gcc
Info: Built Mon Oct 14 11:11:06 CDT 2024 by dhardy on athine.ks.uiuc.edu
Info: 1 NAMD  3.0.1  Linux-x86_64-multicore  16    k006  z5358697
Info: Running on 16 processors, 1 nodes, 1 physical nodes.
Info: CPU topology information available.
Info: Charm++/Converse parallel runtime startup completed at 0.0104899 s
Info: 1043.45 MB of memory in use based on /proc/self/stat
Info: Configuration file is mobley_8746821_equil.namd
Info: Working in the current directory /srv/scratch/z5358697/prod_prep_11/8746821
TCL: Running 25000 steps at 30 kelvin.
TCL: Suspending until startup complete.
Info: SIMULATION PARAMETERS:
Info: TIMESTEP               2
Info: NUMBER OF STEPS        0
Info: STEPS PER CYCLE        10
Info: PERIODIC CELL BASIS 1  41.123 0 0
Info: PERIODIC CELL BASIS 2  0 39.93 0
Info: PERIODIC CELL BASIS 3  0 0 41.374
Info: PERIODIC CELL CENTER   0 0 0
Info: WRAPPING WATERS AROUND PERIODIC BOUNDARIES ON OUTPUT.
Info: WRAPPING ALL CLUSTERS AROUND PERIODIC BOUNDARIES ON OUTPUT.
Info: FIRST LDB TIMESTEP     50
Info: LAST LDB TIMESTEP     -1
Info: HOM BACKGROUND SCALING 1
Info: PME BACKGROUND SCALING 1
Info: MIN ATOMS PER PATCH    40
Info: EMPTY PATCH LOAD       40 ATOMS
Info: INITIAL TEMPERATURE    300
Info: CENTER OF MASS MOVING INITIALLY? NO
Info: DIELECTRIC             1
Info: EXCLUDE                SCALED ONE-FOUR
Info: 1-4 ELECTROSTATICS SCALED BY 0.833333
Info: MODIFIED 1-4 VDW PARAMETERS WILL BE USED
Info: DCD FILENAME           mobley_8746821_equil.dcd
Info: DCD FREQUENCY          5000
Info: DCD FIRST STEP         5000
Info: DCD FILE WILL CONTAIN UNIT CELL DATA
Info: XST FILENAME           mobley_8746821_equil.xst
Info: XST FREQUENCY          5000
Info: NO VELOCITY DCD OUTPUT
Info: NO FORCE DCD OUTPUT
Info: OUTPUT FILENAME        mobley_8746821_equil
Info: BINARY OUTPUT FILES WILL BE USED
Info: RESTART FILENAME       mobley_8746821_equil.restart
Info: RESTART FREQUENCY      5000
Info: BINARY RESTART FILES WILL BE USED
Info: CUTOFF                 9
Info: PAIRLIST DISTANCE      11
Info: PAIRLIST SHRINK RATE   0.01
Info: PAIRLIST GROW RATE     0.01
Info: PAIRLIST TRIGGER       0.3
Info: PAIRLISTS PER CYCLE    2
Info: PAIRLISTS ENABLED
Info: MARGIN                 8
Info: HYDROGEN GROUP CUTOFF  2.5
Info: PATCH DIMENSION        21.5
Info: ENERGY OUTPUT STEPS    5000
Info: ENERGY EVALUATION STEPS    5000
Info: OUTPUT ENERGY PRECISION 4
Info: CROSSTERM ENERGY INCLUDED IN DIHEDRAL
Info: TIMING OUTPUT STEPS    50000
Info: PRESSURE OUTPUT STEPS  5000
Info: LANGEVIN DYNAMICS ACTIVE
Info: LANGEVIN TEMPERATURE   30
Info: LANGEVIN USING BBK INTEGRATOR
Info: LANGEVIN DAMPING COEFFICIENT IS 1 INVERSE PS
Info: LANGEVIN DYNAMICS APPLIED TO HYDROGENS
Info: LANGEVIN PISTON PRESSURE CONTROL ACTIVE
Info:        TARGET PRESSURE IS 1.01325 BAR
Info:     OSCILLATION PERIOD IS 50 FS
Info:             DECAY TIME IS 25 FS
Info:     PISTON TEMPERATURE IS 300 K
Info:       PRESSURE CONTROL IS GROUP-BASED
Info:    INITIAL STRAIN RATE IS 0 0 0
Info:       CELL FLUCTUATION IS ISOTROPIC
Info: PARTICLE MESH EWALD (PME) ACTIVE
Info: PME TOLERANCE               1e-06
Info: PME EWALD COEFFICIENT       0.348832
Info: PME INTERPOLATION ORDER     4
Info: PME GRID DIMENSIONS         44 40 44
Info: PME MAXIMUM GRID SPACING    1
Info: FULL ELECTROSTATIC EVALUATION FREQUENCY      2
Info: USING VERLET I (r-RESPA) MTS SCHEME.
Info: C1 SPLITTING OF LONG RANGE ELECTROSTATICS
Info: PLACING ATOMS IN PATCHES BY HYDROGEN GROUPS
Info: RIGID BONDS TO HYDROGEN : ALL
Info:         ERROR TOLERANCE : 1e-08
Info:          MAX ITERATIONS : 100
Info: RIGID WATER USING SETTLE ALGORITHM
Info: RANDOM NUMBER SEED     1741398883
Info: USE HYDROGEN BONDS?    NO
Info: Using AMBER format force field!
Info: AMBER PARM FILE        mobley_8746821.prmtop
Info: COORDINATE PDB         mobley_8746821.pdb
Info: Exclusions will be read from PARM file!
Info: SCNB (VDW SCALING)     2
Info: USING ARITHMETIC MEAN TO COMBINE L-J SIGMA PARAMETERS
Info: BINARY COORDINATES     mobley_8746821_min.coor
Info: SUMMARY OF PARAMETERS:
Info: 8 BONDS
Info: 10 ANGLES
Info:   10 HARMONIC
Info:   0 COSINE-BASED
Info: 5 DIHEDRAL
Info: 0 IMPROPER
Info: 0 CROSSTERM
Info: 0 VDW
Info: 36 VDW_PAIRS
Info: 0 NBTHOLE_PAIRS
Info: STRUCTURE SUMMARY:
Info: 4940 ATOMS
Info: 4940 BONDS
Info: 28 ANGLES
Info: 38 DIHEDRALS
Info: 0 IMPROPERS
Info: 0 CROSSTERMS
Info: 4997 EXCLUSIONS
Info: 4932 RIGID BONDS
Info: 9888 DEGREES OF FREEDOM
Info: 1649 HYDROGEN GROUPS
Info: 4 ATOMS IN LARGEST HYDROGEN GROUP
Info: 1649 MIGRATION GROUPS
Info: 4 ATOMS IN LARGEST MIGRATION GROUP
Info: TOTAL MASS = 29671.4 amu
Info: TOTAL CHARGE = 0.000100052 e
Info: MASS DENSITY = 0.725247 g/cm^3
Info: ATOM DENSITY = 0.0727135 atoms/A^3
Info: ADDED 0 IMPLICIT EXCLUSIONS
Info: NONBONDED TABLE R-SQUARED SPACING: 0.0625
Info: NONBONDED TABLE SIZE: 705 POINTS
Info: REMOVING COM VELOCITY -0.0726543 0.0901745 0.0235713
TCL: Running for 25000 steps
ETITLE: TS BOND ANGLE DIHED IMPRP ELECT VDW BOUNDARY MISC KINETIC TOTAL TEMP POTENTIAL TOTAL3 TEMPAVG PRESSURE GPRESSURE VOLUME PRESSAVG GPRESSAVG
ENERGY: 0 0.3586 0.4119 0.0144 0.0000 -22737.7456 3975.5440 0.0000 0.0000 2990.7981 -15770.6187 304.4171 -18761.4168 -15770.0174 304.4171 485.6186 519.1186 67937.8205 485.6186 519.1186
ENERGY: 5000 0.8651 1.1415 0.1830 0.0000 -23721.2079 4106.8896 0.0000 0.0000 294.8509 -19317.2778 30.0113 -19612.1288 -19316.7038 47.8369 -100.6769 -41.5111 48222.8117 1.6018 1.6267
ENERGY: 10000 0.2937 0.9890 0.3127 0.0000 -23808.5646 4137.5153 0.0000 0.0000 297.0426 -19372.4113 30.2344 -19669.4539 -19371.8578 30.2796 -18.5741 43.2881 48073.1275 1.9346 1.8062
ENERGY: 15000 0.4812 0.8421 0.1337 0.0000 -23807.7270 4128.2914 0.0000 0.0000 295.8829 -19382.0956 30.1163 -19677.9785 -19381.2742 30.1442 -60.9845 -14.9998 47919.9995 7.0776 6.9983
ENERGY: 20000 0.8758 1.0027 0.3529 0.0000 -23740.9836 4052.1007 0.0000 0.0000 289.1096 -19397.5419 29.4269 -19686.6515 -19396.8006 30.2679 -496.9764 -445.1207 48001.9157 1.9273 1.7893
ENERGY: 25000 0.8113 0.5951 0.5084 0.0000 -23703.3384 4007.8446 0.0000 0.0000 290.0167 -19403.5622 29.5192 -19693.5790 -19402.6730 29.9633 -753.6887 -703.4176 48103.6050 0.2472 0.2860
TCL: Running 25000 steps at 60 kelvin.
TCL: Setting parameter langevinTemp to 60
TCL: Running for 25000 steps
ETITLE: TS BOND ANGLE DIHED IMPRP ELECT VDW BOUNDARY MISC KINETIC TOTAL TEMP POTENTIAL TOTAL3 TEMPAVG PRESSURE GPRESSURE VOLUME PRESSAVG GPRESSAVG
ENERGY: 25000 0.8113 0.5951 0.5084 0.0000 -23703.3384 4007.8446 0.0000 0.0000 289.8661 -19403.7129 29.5039 -19693.5790 -19402.9860 29.5039 -762.2966 -703.3172 48103.6050 -762.2966 -703.3172
ENERGY: 30000 0.9597 0.8938 0.5889 0.0000 -23406.8295 3967.7754 0.0000 0.0000 594.9578 -18841.6540 60.5575 -19436.6118 -18840.0516 57.4944 -395.3366 -357.1663 48295.3829 3.3810 3.2843
ENERGY: 35000 0.4890 0.9080 0.1373 0.0000 -23371.3957 3884.0163 0.0000 0.0000 592.4474 -18893.3977 60.3020 -19485.8451 -18891.9866 59.9821 -886.1951 -856.0056 48266.0185 1.9788 1.8491
ENERGY: 40000 1.0963 1.0808 0.3692 0.0000 -23412.1361 3901.4461 0.0000 0.0000 597.8986 -18910.2452 60.8568 -19508.1438 -18908.7016 59.9853 -827.3928 -766.1955 48095.7383 2.8635 2.9682
ENERGY: 45000 0.8345 1.7096 0.8842 0.0000 -23697.2583 4168.5859 0.0000 0.0000 587.5931 -18937.6510 59.8079 -19525.2442 -18936.7252 60.4816 600.6213 664.2831 47481.3235 4.7297 4.6522
ENERGY: 50000 0.6381 1.0874 0.7767 0.0000 -23768.3786 4214.4489 0.0000 0.0000 589.8764 -18961.5511 60.0403 -19551.4275 -18960.3444 60.2151 784.3694 826.2571 47453.1087 3.4603 3.3013
TCL: Running 25000 steps at 90 kelvin.
TCL: Setting parameter langevinTemp to 90
TCL: Running for 25000 steps
ETITLE: TS BOND ANGLE DIHED IMPRP ELECT VDW BOUNDARY MISC KINETIC TOTAL TEMP POTENTIAL TOTAL3 TEMPAVG PRESSURE GPRESSURE VOLUME PRESSAVG GPRESSAVG
ENERGY: 50000 0.6381 1.0874 0.7767 0.0000 -23768.3786 4214.4489 0.0000 0.0000 589.5724 -18961.8551 60.0094 -19551.4275 -18960.6247 60.0094 773.5524 826.2297 47453.1087 773.5524 826.2297
ENERGY: 55000 0.7372 2.2818 1.5352 0.0000 -23048.0201 3810.6492 0.0000 0.0000 888.6209 -18344.1958 90.4479 -19232.8167 -18341.3669 87.1546 -575.9152 -544.3540 48137.4680 1.8736 1.7130
ENERGY: 60000 0.4542 1.2146 0.7064 0.0000 -23155.4498 3876.4190 0.0000 0.0000 898.1497 -18378.5060 91.4178 -19276.6557 -18375.4156 89.8230 -231.7694 -178.0695 47768.8111 0.7576 0.8939
ENERGY: 65000 0.6583 2.0804 0.5623 0.0000 -23279.3721 3984.2977 0.0000 0.0000 897.3928 -18394.3806 91.3407 -19291.7734 -18391.6732 91.2470 229.6256 312.3785 47521.6671 -1.1632 -1.7041
ENERGY: 70000 0.1451 2.9472 0.4440 0.0000 -23403.0812 4068.4749 0.0000 0.0000 882.6176 -18448.4523 89.8369 -19331.0699 -18445.6101 90.3534 630.9422 702.2659 47389.3222 -1.7555 -1.5252
ENERGY: 75000 2.2152 1.7599 0.7965 0.0000 -23225.3415 3904.7476 0.0000 0.0000 871.3721 -18444.4502 88.6922 -19315.8223 -18442.3398 91.0865 -233.3742 -168.8337 47574.8958 6.3284 6.2866
TCL: Running 25000 steps at 120 kelvin.
TCL: Setting parameter langevinTemp to 120
TCL: Running for 25000 steps
ETITLE: TS BOND ANGLE DIHED IMPRP ELECT VDW BOUNDARY MISC KINETIC TOTAL TEMP POTENTIAL TOTAL3 TEMPAVG PRESSURE GPRESSURE VOLUME PRESSAVG GPRESSAVG
ENERGY: 75000 2.2152 1.7599 0.7965 0.0000 -23225.3415 3904.7476 0.0000 0.0000 870.9432 -18444.8791 88.6486 -19315.8223 -18442.9629 88.6486 -233.0154 -169.0095 47574.8958 -233.0154 -169.0095
ENERGY: 80000 1.9912 3.1834 1.1827 0.0000 -22932.9391 3935.1107 0.0000 0.0000 1199.8232 -17791.6479 122.1235 -18991.4712 -17789.5823 116.7155 695.1165 759.2559 47791.5293 5.9592 5.5968
ENERGY: 85000 0.5711 2.5347 0.5489 0.0000 -22766.4851 3716.3606 0.0000 0.0000 1182.4248 -17864.0451 120.3526 -19046.4699 -17860.0411 120.4521 -521.7949 -494.3359 48178.0582 -3.7580 -3.9579
ENERGY: 90000 1.4998 2.3633 1.1076 0.0000 -22918.6221 3815.1019 0.0000 0.0000 1164.7095 -17933.8401 118.5494 -19098.5495 -17930.3045 119.4793 -247.0038 -169.6347 48026.9138 -0.7193 -0.6363
ENERGY: 95000 0.4805 3.2088 0.5790 0.0000 -22847.8987 3736.0874 0.0000 0.0000 1166.3031 -17941.2399 118.7117 -19107.5430 -17938.7083 119.5078 -634.6761 -577.3144 48248.8660 3.2044 3.1993
ENERGY: 100000 0.6454 3.6326 1.0884 0.0000 -22962.3099 3827.5813 0.0000 0.0000 1165.0857 -17964.2765 118.5877 -19129.3621 -17962.7186 120.2573 -232.0946 -198.6363 48096.2435 6.3312 6.2061
TCL: Running 25000 steps at 150 kelvin.
TCL: Setting parameter langevinTemp to 150
TCL: Running for 25000 steps
ETITLE: TS BOND ANGLE DIHED IMPRP ELECT VDW BOUNDARY MISC KINETIC TOTAL TEMP POTENTIAL TOTAL3 TEMPAVG PRESSURE GPRESSURE VOLUME PRESSAVG GPRESSAVG
ENERGY: 100000 0.6454 3.6326 1.0884 0.0000 -22962.3099 3827.5813 0.0000 0.0000 1164.5073 -17964.8548 118.5289 -19129.3621 -17961.9026 118.5289 -266.4071 -199.5167 48096.2435 -266.4071 -199.5167
ENERGY: 105000 1.8755 3.4204 0.5000 0.0000 -22430.4943 3673.4987 0.0000 0.0000 1499.5963 -17251.6033 152.6358 -18751.1997 -17247.0056 146.6584 -69.9594 -15.9394 48152.2629 -0.1105 0.3336
ENERGY: 110000 1.1585 1.9724 1.6151 0.0000 -22451.4749 3675.9948 0.0000 0.0000 1494.7212 -17276.0130 152.1395 -18770.7342 -17271.6375 150.2159 -246.7658 -184.1029 48397.1356 0.7308 0.9301
ENERGY: 115000 1.1460 4.4413 2.0864 0.0000 -22459.0711 3643.2686 0.0000 0.0000 1484.1166 -17324.0123 151.0602 -18808.1289 -17320.3434 150.5917 -255.5636 -220.8536 48084.5103 3.7507 2.9068
ENERGY: 120000 0.8261 1.7849 0.6918 0.0000 -22621.5975 3751.9864 0.0000 0.0000 1466.7737 -17399.5345 149.2949 -18866.3082 -17395.9404 148.9447 83.8781 169.2047 47889.7105 7.3191 7.2691
ENERGY: 125000 2.9024 3.8046 1.2830 0.0000 -22497.5492 3712.4900 0.0000 0.0000 1450.0350 -17327.0341 147.5912 -18777.0691 -17322.9856 150.2260 54.8210 92.4945 47828.8362 -0.0638 -0.3439
TCL: Running 50000 steps at 180 kelvin.
TCL: Setting parameter langevinTemp to 180
TCL: Running for 50000 steps
ETITLE: TS BOND ANGLE DIHED IMPRP ELECT VDW BOUNDARY MISC KINETIC TOTAL TEMP POTENTIAL TOTAL3 TEMPAVG PRESSURE GPRESSURE VOLUME PRESSAVG GPRESSAVG
ENERGY: 125000 2.9024 3.8046 1.2830 0.0000 -22497.5491 3712.4900 0.0000 0.0000 1449.2939 -17327.7752 147.5158 -18777.0691 -17325.2886 147.5158 19.6084 93.0087 47828.8362 19.6084 93.0087
ENERGY: 135000 2.9449 1.8870 3.0657 0.0000 -22160.5105 3748.1775 0.0000 0.0000 1789.0071 -16615.4283 182.0933 -18404.4354 -16610.6446 181.0539 1002.8164 1048.7908 48025.8115 0.5564 0.6291
ENERGY: 145000 0.5974 4.6669 2.2542 0.0000 -22066.1691 3707.3906 0.0000 0.0000 1786.5202 -16564.7399 181.8402 -18351.2601 -16559.9419 181.0534 955.6841 1008.5569 47978.7259 7.9428 7.8521
ENERGY: 155000 2.8395 2.4012 1.4620 0.0000 -21988.5567 3623.9429 0.0000 0.0000 1754.5130 -16603.3981 178.5823 -18357.9111 -16600.2453 180.3555 453.4515 519.6269 48174.4778 3.5941 3.6236
ENERGY: 165000 2.6103 2.0674 0.4568 0.0000 -21728.9990 3275.8794 0.0000 0.0000 1768.1533 -16679.8319 179.9707 -18447.9851 -16675.7595 180.4738 -1517.8396 -1487.2202 48856.6563 5.5891 5.4945
ENERGY: 175000 0.9802 3.8371 2.3761 0.0000 -21915.3053 3521.3332 0.0000 0.0000 1813.9739 -16572.8049 184.6345 -18386.7788 -16567.3971 181.2188 66.8916 155.0335 47905.1456 3.2141 3.3398
TCL: Running 50000 steps at 210 kelvin.
TCL: Setting parameter langevinTemp to 210
TCL: Running for 50000 steps
ETITLE: TS BOND ANGLE DIHED IMPRP ELECT VDW BOUNDARY MISC KINETIC TOTAL TEMP POTENTIAL TOTAL3 TEMPAVG PRESSURE GPRESSURE VOLUME PRESSAVG GPRESSAVG
ENERGY: 175000 0.9802 3.8371 2.3761 0.0000 -21915.3054 3521.3332 0.0000 0.0000 1813.1004 -16573.6784 184.5456 -18386.7788 -16570.7924 184.5456 98.0904 155.5682 47905.1456 98.0904 155.5682
ENERGY: 185000 0.7167 4.1130 1.9732 0.0000 -20883.0950 3190.0441 0.0000 0.0000 2091.4265 -15594.8216 212.8749 -17686.2481 -15590.3505 209.3948 -301.0348 -238.5405 48985.0515 4.7890 5.2270
ENERGY: 195000 0.8205 4.0160 1.1893 0.0000 -20855.1857 3235.8591 0.0000 0.0000 2048.7520 -15564.5488 208.5313 -17613.3008 -15562.3200 208.9105 354.6129 451.2077 48012.3324 -0.3491 -1.4165
ENERGY: 205000 1.9539 4.1522 1.0460 0.0000 -20835.2803 3150.6328 0.0000 0.0000 2092.3874 -15585.1079 212.9727 -17677.4953 -15580.6624 209.3656 -85.3347 -48.8991 47930.2202 4.8303 4.6091
ENERGY: 215000 2.7136 2.0552 1.6336 0.0000 -20709.7220 3080.0832 0.0000 0.0000 2109.7356 -15513.5008 214.7385 -17623.2363 -15507.9968 210.3287 -240.0987 -181.0818 47817.8073 1.0271 1.3128
ENERGY: 225000 0.8295 3.3079 1.9788 0.0000 -20605.6922 3051.0419 0.0000 0.0000 2114.8446 -15433.6895 215.2585 -17548.5341 -15428.7055 210.5359 -546.0388 -479.4765 48655.4225 2.6042 2.7368
TCL: Running 50000 steps at 240 kelvin.
TCL: Setting parameter langevinTemp to 240
TCL: Running for 50000 steps
ETITLE: TS BOND ANGLE DIHED IMPRP ELECT VDW BOUNDARY MISC KINETIC TOTAL TEMP POTENTIAL TOTAL3 TEMPAVG PRESSURE GPRESSURE VOLUME PRESSAVG GPRESSAVG
ENERGY: 225000 0.8295 3.3079 1.9788 0.0000 -20605.6922 3051.0419 0.0000 0.0000 2113.8604 -15434.6738 215.1584 -17548.5341 -15430.4823 215.1584 -573.0820 -479.8115 48655.4225 -573.0820 -479.8115
ENERGY: 235000 3.8365 3.8793 0.7295 0.0000 -19676.5616 2893.6208 0.0000 0.0000 2383.5883 -14390.9072 242.6125 -16774.4954 -14386.4948 239.7500 381.5071 453.8356 48777.7558 5.5463 5.3648
ENERGY: 245000 5.6456 2.8545 1.9063 0.0000 -19708.9448 2923.8505 0.0000 0.0000 2346.5005 -14428.1875 238.8375 -16774.6880 -14423.8518 241.6101 553.9048 660.8059 48361.3220 4.4560 4.0381
ENERGY: 255000 1.1012 3.4556 1.8931 0.0000 -19868.7153 2965.5142 0.0000 0.0000 2403.6790 -14493.0722 244.6574 -16896.7513 -14489.7636 238.8106 479.7343 621.5369 48482.5880 1.1026 1.2765
ENERGY: 265000 0.3097 6.2609 1.0220 0.0000 -20008.5213 3017.0536 0.0000 0.0000 2329.1454 -14654.7297 237.0711 -16983.8751 -14652.3523 241.0343 488.2679 523.8823 48691.0009 3.6684 3.6947
ENERGY: 275000 2.6297 7.3589 0.9508 0.0000 -19795.6257 2859.5868 0.0000 0.0000 2355.8847 -14569.2148 239.7927 -16925.0995 -14565.5739 239.6603 -221.8503 -128.8703 48586.1122 0.0892 -0.1822
TCL: Running 50000 steps at 270 kelvin.
TCL: Setting parameter langevinTemp to 270
TCL: Running for 50000 steps
ETITLE: TS BOND ANGLE DIHED IMPRP ELECT VDW BOUNDARY MISC KINETIC TOTAL TEMP POTENTIAL TOTAL3 TEMPAVG PRESSURE GPRESSURE VOLUME PRESSAVG GPRESSAVG
ENERGY: 275000 2.6297 7.3589 0.9508 0.0000 -19795.6257 2859.5868 0.0000 0.0000 2354.6883 -14570.4112 239.6709 -16925.0995 -14566.5789 239.6709 -211.6573 -127.7534 48586.1122 -211.6573 -127.7534
ENERGY: 285000 2.4390 5.6693 2.8898 0.0000 -18939.5621 2672.1473 0.0000 0.0000 2584.3696 -13672.0471 263.0489 -16256.4168 -13666.5994 269.6249 -51.6683 52.0708 49589.3035 0.9674 1.2196
ENERGY: 295000 2.4315 7.7652 1.8686 0.0000 -18656.7236 2517.5322 0.0000 0.0000 2693.9143 -13433.2118 274.1989 -16127.1261 -13428.4813 269.5829 -546.7884 -467.3530 50256.4742 4.6881 5.1813
ENERGY: 305000 1.5243 8.9958 1.0951 0.0000 -18657.4621 2478.0113 0.0000 0.0000 2683.4771 -13484.3585 273.1365 -16167.8355 -13479.6241 270.1715 -948.4329 -872.5920 50111.0311 5.4770 5.3527
ENERGY: 315000 3.2191 3.3285 2.5218 0.0000 -18828.1010 2657.9468 0.0000 0.0000 2673.3092 -13487.7758 272.1016 -16161.0849 -13485.1514 270.2933 209.4489 304.0201 49328.4391 -0.7864 -0.6730
ENERGY: 325000 5.3387 9.8989 2.1604 0.0000 -18692.1913 2482.0306 0.0000 0.0000 2674.4530 -13518.3097 272.2180 -16192.7627 -13512.8729 271.1435 -950.3417 -897.4013 50420.5275 1.6064 1.6841
TCL: Running 1000000 steps at 300 kelvin.
TCL: Setting parameter langevinTemp to 300
TCL: Running for 1000000 steps
ETITLE: TS BOND ANGLE DIHED IMPRP ELECT VDW BOUNDARY MISC KINETIC TOTAL TEMP POTENTIAL TOTAL3 TEMPAVG PRESSURE GPRESSURE VOLUME PRESSAVG GPRESSAVG
ENERGY: 325000 5.3387 9.8989 2.1604 0.0000 -18692.1913 2482.0306 0.0000 0.0000 2673.1020 -13519.6607 272.0805 -16192.7627 -13515.6532 272.0805 -967.1301 -897.3865 50420.5275 -967.1301 -897.3865
ENERGY: 525000 2.9483 9.2177 1.2277 0.0000 -17745.2565 2220.2924 0.0000 0.0000 2896.1991 -12615.3713 294.7884 -15511.5704 -12606.7627 301.2657 -893.5973 -818.5251 50874.5843 0.7553 0.2651
ENERGY: 725000 4.3501 7.6213 5.0430 0.0000 -17978.7616 2445.1157 0.0000 0.0000 3024.4004 -12492.2313 307.8373 -15516.6317 -12483.6556 297.9896 26.7402 69.9006 50976.8623 4.4584 4.4568
ENERGY: 925000 3.6949 4.5568 0.7867 0.0000 -17924.0127 2343.7396 0.0000 0.0000 2954.5722 -12616.6625 300.7298 -15571.2347 -12612.2883 298.3731 -474.0534 -423.4450 50672.2797 3.7465 3.5583
ENERGY: 1125000 1.7580 4.1336 1.8490 0.0000 -17890.5689 2354.1827 0.0000 0.0000 2936.8676 -12591.7779 298.9278 -15528.6455 -12587.1856 299.7746 -207.6698 -171.8725 51027.2080 -0.2219 0.1792
ENERGY: 1325000 1.8759 3.5717 2.1691 0.0000 -18024.5517 2411.2804 0.0000 0.0000 2927.3236 -12678.3309 297.9564 -15605.6545 -12671.0910 301.0077 -104.7382 15.0192 50618.6121 -1.7019 -2.3445
TCL: Exiting due to exit command.
