Info: SIMULATION PARAMETERS:
Info: TIMESTEP               2
Info: NUMBER OF STEPS        0
Info: STEPS PER CYCLE        10
Info: PERIODIC CELL BASIS 1  41.123 0 0
Info: PERIODIC CELL BASIS 2  0 40.42 0
Info: PERIODIC CELL BASIS 3  0 0 43.222
Info: PERIODIC CELL CENTER   0 0 0
Info: WRAPPING WATERS AROUND PERIODIC BOUNDARIES ON OUTPUT.
Info: WRAPPING ALL CLUSTERS AROUND PERIODIC BOUNDARIES ON OUTPUT.
Info: FIRST LDB TIMESTEP     50
Info: LAST LDB TIMESTEP     -1
Info: HOM BACKGROUND SCALING 1
Info: PME BACKGROUND SCALING 1
Info: MIN ATOMS PER PATCH    40
Info: EMPTY PATCH LOAD       40 ATOMS
Info: INITIAL TEMPERATURE    300
Info: CENTER OF MASS MOVING INITIALLY? NO
Info: DIELECTRIC             1
Info: EXCLUDE                SCALED ONE-FOUR
Info: 1-4 ELECTROSTATICS SCALED BY 0.833333
Info: MODIFIED 1-4 VDW PARAMETERS WILL BE USED
Info: DCD FILENAME           mobley_4613090_min.dcd
Info: DCD FREQUENCY          5000
Info: DCD FIRST STEP         5000
Info: DCD FILE WILL CONTAIN UNIT CELL DATA
Info: XST FILENAME           mobley_4613090_min.xst
Info: XST FREQUENCY          5000
Info: NO VELOCITY DCD OUTPUT
Info: NO FORCE DCD OUTPUT
Info: OUTPUT FILENAME        mobley_4613090_min
Info: BINARY OUTPUT FILES WILL BE USED
Info: RESTART FILENAME       mobley_4613090_min.restart
Info: RESTART FREQUENCY      5000
Info: BINARY RESTART FILES WILL BE USED
Info: CUTOFF                 9
Info: PAIRLIST DISTANCE      11
Info: PAIRLIST SHRINK RATE   0.01
Info: PAIRLIST GROW RATE     0.01
Info: PAIRLIST TRIGGER       0.3
Info: PAIRLISTS PER CYCLE    2
Info: PAIRLISTS ENABLED
Info: MARGIN                 8
Info: HYDROGEN GROUP CUTOFF  2.5
Info: PATCH DIMENSION        21.5
Info: ENERGY OUTPUT STEPS    5000
Info: ENERGY EVALUATION STEPS    5000
Info: OUTPUT ENERGY PRECISION 4
Info: CROSSTERM ENERGY INCLUDED IN DIHEDRAL
Info: TIMING OUTPUT STEPS    50000
Info: PRESSURE OUTPUT STEPS  5000
Info: LANGEVIN DYNAMICS ACTIVE
Info: LANGEVIN TEMPERATURE   300
Info: LANGEVIN USING BBK INTEGRATOR
Info: LANGEVIN DAMPING COEFFICIENT IS 1 INVERSE PS
Info: LANGEVIN DYNAMICS APPLIED TO HYDROGENS
Info: LANGEVIN PISTON PRESSURE CONTROL ACTIVE
Info:        TARGET PRESSURE IS 1.01325 BAR
Info:     OSCILLATION PERIOD IS 50 FS
Info:             DECAY TIME IS 25 FS
Info:     PISTON TEMPERATURE IS 300 K
Info:       PRESSURE CONTROL IS GROUP-BASED
Info:    INITIAL STRAIN RATE IS 0 0 0
Info:       CELL FLUCTUATION IS ISOTROPIC
Info: PARTICLE MESH EWALD (PME) ACTIVE
Info: PME TOLERANCE               1e-06
Info: PME EWALD COEFFICIENT       0.348832
Info: PME INTERPOLATION ORDER     4
Info: PME GRID DIMENSIONS         44 44 44
Info: PME MAXIMUM GRID SPACING    1
Info: FULL ELECTROSTATIC EVALUATION FREQUENCY      2
Info: USING VERLET I (r-RESPA) MTS SCHEME.
Info: C1 SPLITTING OF LONG RANGE ELECTROSTATICS
Info: PLACING ATOMS IN PATCHES BY HYDROGEN GROUPS
Info: RIGID BONDS TO HYDROGEN : ALL
Info:         ERROR TOLERANCE : 1e-08
Info:          MAX ITERATIONS : 100
Info: RIGID WATER USING SETTLE ALGORITHM
Info: RANDOM NUMBER SEED     1741334334
Info: USE HYDROGEN BONDS?    NO
Info: Using AMBER format force field!
Info: AMBER PARM FILE        mobley_4613090.prmtop
Info: COORDINATE PDB         mobley_4613090.pdb
Info: Exclusions will be read from PARM file!
Info: SCNB (VDW SCALING)     2
Info: USING ARITHMETIC MEAN TO COMBINE L-J SIGMA PARAMETERS
Info: SUMMARY OF PARAMETERS:
Info: 14 BONDS
Info: 19 ANGLES
Info:   19 HARMONIC
Info:   0 COSINE-BASED
Info: 8 DIHEDRAL
Info: 0 IMPROPER
Info: 0 CROSSTERM
Info: 0 VDW
Info: 55 VDW_PAIRS
Info: 0 NBTHOLE_PAIRS
Info: STRUCTURE SUMMARY:
Info: 5242 ATOMS
Info: 5243 BONDS
Info: 37 ANGLES
Info: 58 DIHEDRALS
Info: 0 IMPROPERS
Info: 0 CROSSTERMS
Info: 5324 EXCLUSIONS
Info: 5230 RIGID BONDS
Info: 10496 DEGREES OF FREEDOM
Info: 1752 HYDROGEN GROUPS
Info: 3 ATOMS IN LARGEST HYDROGEN GROUP
Info: 1752 MIGRATION GROUPS
Info: 3 ATOMS IN LARGEST MIGRATION GROUP
Info: TOTAL MASS = 31506 amu
Info: TOTAL CHARGE = -9.99682e-05 e
Info: MASS DENSITY = 0.728228 g/cm^3
Info: ATOM DENSITY = 0.0729644 atoms/A^3
Info: ADDED 0 IMPLICIT EXCLUSIONS
Info: NONBONDED TABLE R-SQUARED SPACING: 0.0625
Info: NONBONDED TABLE SIZE: 705 POINTS
Info: REMOVING COM VELOCITY 0.163273 -0.0232498 -0.00379063
TCL: Minimizing for 2000 steps
ETITLE: TS BOND ANGLE DIHED IMPRP ELECT VDW BOUNDARY MISC KINETIC TOTAL TEMP POTENTIAL TOTAL3 TEMPAVG PRESSURE GPRESSURE VOLUME PRESSAVG GPRESSAVG
ENERGY: 0 2.7971 3.3042 1.1803 0.0000 -16281.1782 1812.4845 0.0000 0.0000 0.0000 -14461.4122 0.0000 -14461.4122 -14461.4122 0.0000 11154.6506 -15618.0188 71843.2479 11154.6506 -15618.0188
ENERGY: 400 2.9293 2.4188 1.4819 0.0000 -21736.4613 3051.7259 0.0000 0.0000 0.0000 -18677.9055 0.0000 -18677.9055 -18677.9055 0.0000 15363.1302 9940.8173 71843.2479 15363.1302 9940.8173
ENERGY: 800 1.2859 0.9828 1.1963 0.0000 -23099.7358 3756.4744 0.0000 0.0000 0.0000 -19339.7965 0.0000 -19339.7965 -19339.7965 0.0000 18425.0206 12537.9553 71843.2479 18425.0206 12537.9553
ENERGY: 1200 0.5864 0.9063 0.9199 0.0000 -23574.3846 3928.7821 0.0000 0.0000 0.0000 -19643.1900 0.0000 -19643.1900 -19643.1900 0.0000 19231.1176 13172.4729 71843.2479 19231.1176 13172.4729
ENERGY: 1600 0.2923 0.9103 1.2763 0.0000 -23847.3588 4065.8858 0.0000 0.0000 0.0000 -19778.9941 0.0000 -19778.9941 -19778.9941 0.0000 19898.0935 13967.4068 71843.2479 19898.0935 13967.4068
ENERGY: 2000 0.3636 0.7721 1.1495 0.0000 -23949.1260 4094.1710 0.0000 0.0000 0.0000 -19852.6698 0.0000 -19852.6698 -19852.6698 0.0000 20054.6783 13980.8224 71843.2479 20054.6783 13980.8224
TCL: Exiting due to exit command.
Info: NAMD 3.0.1 for Linux-x86_64-multicore
Info: Please visit http://www.ks.uiuc.edu/Research/namd/
Info: for updates, documentation, and support information.
Info: Please cite Phillips et al., J. Chem. Phys. 153:044130 (2020) doi:10.1063/5.0014475
Info: in all publications reporting results obtained with NAMD.
Info: Based on Charm++/Converse 80000 for multicore-linux-x86_64-gcc
Info: Built Mon Oct 14 11:11:06 CDT 2024 by dhardy on athine.ks.uiuc.edu
Info: 1 NAMD  3.0.1  Linux-x86_64-multicore  16    k116  z5358697
Info: Running on 16 processors, 1 nodes, 1 physical nodes.
Info: CPU topology information available.
Info: Charm++/Converse parallel runtime startup completed at 0.00845755 s
Info: 1043.48 MB of memory in use based on /proc/self/stat
Info: Configuration file is mobley_4613090_equil.namd
Info: Working in the current directory /srv/scratch/z5358697/prod_prep_5/4613090
TCL: Running 25000 steps at 30 kelvin.
TCL: Suspending until startup complete.
Info: SIMULATION PARAMETERS:
Info: TIMESTEP               2
Info: NUMBER OF STEPS        0
Info: STEPS PER CYCLE        10
Info: PERIODIC CELL BASIS 1  41.123 0 0
Info: PERIODIC CELL BASIS 2  0 40.42 0
Info: PERIODIC CELL BASIS 3  0 0 43.222
Info: PERIODIC CELL CENTER   0 0 0
Info: WRAPPING WATERS AROUND PERIODIC BOUNDARIES ON OUTPUT.
Info: WRAPPING ALL CLUSTERS AROUND PERIODIC BOUNDARIES ON OUTPUT.
Info: FIRST LDB TIMESTEP     50
Info: LAST LDB TIMESTEP     -1
Info: HOM BACKGROUND SCALING 1
Info: PME BACKGROUND SCALING 1
Info: MIN ATOMS PER PATCH    40
Info: EMPTY PATCH LOAD       40 ATOMS
Info: INITIAL TEMPERATURE    300
Info: CENTER OF MASS MOVING INITIALLY? NO
Info: DIELECTRIC             1
Info: EXCLUDE                SCALED ONE-FOUR
Info: 1-4 ELECTROSTATICS SCALED BY 0.833333
Info: MODIFIED 1-4 VDW PARAMETERS WILL BE USED
Info: DCD FILENAME           mobley_4613090_equil.dcd
Info: DCD FREQUENCY          5000
Info: DCD FIRST STEP         5000
Info: DCD FILE WILL CONTAIN UNIT CELL DATA
Info: XST FILENAME           mobley_4613090_equil.xst
Info: XST FREQUENCY          5000
Info: NO VELOCITY DCD OUTPUT
Info: NO FORCE DCD OUTPUT
Info: OUTPUT FILENAME        mobley_4613090_equil
Info: BINARY OUTPUT FILES WILL BE USED
Info: RESTART FILENAME       mobley_4613090_equil.restart
Info: RESTART FREQUENCY      5000
Info: BINARY RESTART FILES WILL BE USED
Info: CUTOFF                 9
Info: PAIRLIST DISTANCE      11
Info: PAIRLIST SHRINK RATE   0.01
Info: PAIRLIST GROW RATE     0.01
Info: PAIRLIST TRIGGER       0.3
Info: PAIRLISTS PER CYCLE    2
Info: PAIRLISTS ENABLED
Info: MARGIN                 8
Info: HYDROGEN GROUP CUTOFF  2.5
Info: PATCH DIMENSION        21.5
Info: ENERGY OUTPUT STEPS    5000
Info: ENERGY EVALUATION STEPS    5000
Info: OUTPUT ENERGY PRECISION 4
Info: CROSSTERM ENERGY INCLUDED IN DIHEDRAL
Info: TIMING OUTPUT STEPS    50000
Info: PRESSURE OUTPUT STEPS  5000
Info: LANGEVIN DYNAMICS ACTIVE
Info: LANGEVIN TEMPERATURE   30
Info: LANGEVIN USING BBK INTEGRATOR
Info: LANGEVIN DAMPING COEFFICIENT IS 1 INVERSE PS
Info: LANGEVIN DYNAMICS APPLIED TO HYDROGENS
Info: LANGEVIN PISTON PRESSURE CONTROL ACTIVE
Info:        TARGET PRESSURE IS 1.01325 BAR
Info:     OSCILLATION PERIOD IS 50 FS
Info:             DECAY TIME IS 25 FS
Info:     PISTON TEMPERATURE IS 300 K
Info:       PRESSURE CONTROL IS GROUP-BASED
Info:    INITIAL STRAIN RATE IS 0 0 0
Info:       CELL FLUCTUATION IS ISOTROPIC
Info: PARTICLE MESH EWALD (PME) ACTIVE
Info: PME TOLERANCE               1e-06
Info: PME EWALD COEFFICIENT       0.348832
Info: PME INTERPOLATION ORDER     4
Info: PME GRID DIMENSIONS         44 44 44
Info: PME MAXIMUM GRID SPACING    1
Info: FULL ELECTROSTATIC EVALUATION FREQUENCY      2
Info: USING VERLET I (r-RESPA) MTS SCHEME.
Info: C1 SPLITTING OF LONG RANGE ELECTROSTATICS
Info: PLACING ATOMS IN PATCHES BY HYDROGEN GROUPS
Info: RIGID BONDS TO HYDROGEN : ALL
Info:         ERROR TOLERANCE : 1e-08
Info:          MAX ITERATIONS : 100
Info: RIGID WATER USING SETTLE ALGORITHM
Info: RANDOM NUMBER SEED     1741334349
Info: USE HYDROGEN BONDS?    NO
Info: Using AMBER format force field!
Info: AMBER PARM FILE        mobley_4613090.prmtop
Info: COORDINATE PDB         mobley_4613090.pdb
Info: Exclusions will be read from PARM file!
Info: SCNB (VDW SCALING)     2
Info: USING ARITHMETIC MEAN TO COMBINE L-J SIGMA PARAMETERS
Info: BINARY COORDINATES     mobley_4613090_min.coor
Info: SUMMARY OF PARAMETERS:
Info: 14 BONDS
Info: 19 ANGLES
Info:   19 HARMONIC
Info:   0 COSINE-BASED
Info: 8 DIHEDRAL
Info: 0 IMPROPER
Info: 0 CROSSTERM
Info: 0 VDW
Info: 55 VDW_PAIRS
Info: 0 NBTHOLE_PAIRS
Info: STRUCTURE SUMMARY:
Info: 5242 ATOMS
Info: 5243 BONDS
Info: 37 ANGLES
Info: 58 DIHEDRALS
Info: 0 IMPROPERS
Info: 0 CROSSTERMS
Info: 5324 EXCLUSIONS
Info: 5230 RIGID BONDS
Info: 10496 DEGREES OF FREEDOM
Info: 1752 HYDROGEN GROUPS
Info: 3 ATOMS IN LARGEST HYDROGEN GROUP
Info: 1752 MIGRATION GROUPS
Info: 3 ATOMS IN LARGEST MIGRATION GROUP
Info: TOTAL MASS = 31506 amu
Info: TOTAL CHARGE = -9.99682e-05 e
Info: MASS DENSITY = 0.728228 g/cm^3
Info: ATOM DENSITY = 0.0729644 atoms/A^3
Info: ADDED 0 IMPLICIT EXCLUSIONS
Info: NONBONDED TABLE R-SQUARED SPACING: 0.0625
Info: NONBONDED TABLE SIZE: 705 POINTS
Info: REMOVING COM VELOCITY -0.0867128 -0.0583895 0.155252
TCL: Running for 25000 steps
ETITLE: TS BOND ANGLE DIHED IMPRP ELECT VDW BOUNDARY MISC KINETIC TOTAL TEMP POTENTIAL TOTAL3 TEMPAVG PRESSURE GPRESSURE VOLUME PRESSAVG GPRESSAVG
ENERGY: 0 0.3636 0.7721 1.1495 0.0000 -23949.1260 4094.1710 0.0000 0.0000 3111.0354 -16741.6344 298.3125 -19852.6698 -16741.0612 298.3125 170.5838 213.5951 71843.2479 170.5838 213.5951
ENERGY: 5000 0.5501 1.1637 1.6687 0.0000 -25260.4105 4456.5943 0.0000 0.0000 324.1087 -20476.3251 31.0783 -20800.4338 -20475.3998 48.0767 609.3090 646.4890 50382.0905 4.8756 4.9608
ENERGY: 10000 0.7279 1.9247 1.3935 0.0000 -25226.4297 4372.2940 0.0000 0.0000 307.3733 -20542.7163 29.4736 -20850.0896 -20542.1883 30.3557 -7.8124 38.2564 50582.7633 4.7601 4.9600
ENERGY: 15000 0.7140 1.2264 1.5793 0.0000 -25295.5401 4428.3818 0.0000 0.0000 314.1841 -20549.4546 30.1266 -20863.6387 -20548.6184 30.0079 307.4394 379.7507 50402.6476 0.7222 0.5451
ENERGY: 20000 0.6396 1.0970 1.6003 0.0000 -25377.4805 4501.3102 0.0000 0.0000 318.7536 -20554.0798 30.5648 -20872.8334 -20553.1202 30.1019 667.1228 726.0768 50162.3793 0.2115 0.2935
ENERGY: 25000 0.5228 1.2805 1.7467 0.0000 -25183.4277 4292.3044 0.0000 0.0000 312.0490 -20575.5243 29.9219 -20887.5733 -20574.6947 30.1947 -405.5836 -339.9126 50517.2844 3.8038 3.7956
TCL: Running 25000 steps at 60 kelvin.
TCL: Setting parameter langevinTemp to 60
TCL: Running for 25000 steps
ETITLE: TS BOND ANGLE DIHED IMPRP ELECT VDW BOUNDARY MISC KINETIC TOTAL TEMP POTENTIAL TOTAL3 TEMPAVG PRESSURE GPRESSURE VOLUME PRESSAVG GPRESSAVG
ENERGY: 25000 0.5228 1.2805 1.7467 0.0000 -25183.4277 4292.3044 0.0000 0.0000 311.8985 -20575.6748 29.9075 -20887.5733 -20574.9673 29.9075 -401.0742 -339.9183 50517.2844 -401.0742 -339.9183
ENERGY: 30000 0.8772 1.7020 1.9926 0.0000 -24577.5848 3957.7517 0.0000 0.0000 622.0558 -19993.2055 59.6480 -20615.2613 -19991.4411 57.0556 -1439.0720 -1357.8376 51038.9070 3.1311 3.1263
ENERGY: 35000 1.3300 1.5129 2.0846 0.0000 -24784.4681 4135.1588 0.0000 0.0000 623.5508 -20020.8310 59.7914 -20644.3819 -20019.0133 60.0400 -598.2481 -513.4059 50717.7541 8.1223 7.9419
ENERGY: 40000 0.6072 1.9485 1.6882 0.0000 -24931.2068 4223.6054 0.0000 0.0000 623.2666 -20080.0910 59.7641 -20703.3576 -20077.7994 60.4287 -289.7634 -248.2106 50726.2704 5.4581 5.3477
ENERGY: 45000 0.8709 1.8081 2.1628 0.0000 -24907.6113 4203.5257 0.0000 0.0000 626.4763 -20072.7674 60.0719 -20699.2437 -20071.5224 59.8553 -344.7721 -278.6900 50705.1237 -2.1032 -2.1098
ENERGY: 50000 0.8620 2.3000 1.7835 0.0000 -24820.0003 4083.3000 0.0000 0.0000 628.9852 -20102.7696 60.3125 -20731.7548 -20100.9284 59.8534 -1109.2094 -1044.3311 50898.1212 1.6659 1.7756
TCL: Running 25000 steps at 90 kelvin.
TCL: Setting parameter langevinTemp to 90
TCL: Running for 25000 steps
ETITLE: TS BOND ANGLE DIHED IMPRP ELECT VDW BOUNDARY MISC KINETIC TOTAL TEMP POTENTIAL TOTAL3 TEMPAVG PRESSURE GPRESSURE VOLUME PRESSAVG GPRESSAVG
ENERGY: 50000 0.8620 2.3000 1.7835 0.0000 -24820.0003 4083.3000 0.0000 0.0000 628.6724 -20103.0824 60.2825 -20731.7548 -20101.4396 60.2825 -1097.1571 -1044.2698 50898.1212 -1097.1571 -1044.2698
ENERGY: 55000 2.8283 2.0198 2.5275 0.0000 -24593.6156 4184.8216 0.0000 0.0000 936.6908 -19464.7276 89.8179 -20401.4184 -19462.1226 87.1752 171.7106 226.2587 50867.5497 0.9956 0.8974
ENERGY: 60000 2.3784 2.7380 2.1749 0.0000 -24617.5982 4162.0627 0.0000 0.0000 932.9618 -19515.2824 89.4603 -20448.2442 -19513.7023 90.0034 -79.2066 -28.4056 50559.0264 -0.2124 -0.1007
ENERGY: 65000 2.6882 3.5774 2.0213 0.0000 -24671.8921 4179.1578 0.0000 0.0000 928.1329 -19556.3145 88.9973 -20484.4474 -19553.5626 90.0254 -70.1972 -35.1863 50699.9832 5.1651 5.0983
ENERGY: 70000 1.0949 3.1145 1.2494 0.0000 -24725.4992 4229.3506 0.0000 0.0000 925.9043 -19564.7855 88.7836 -20490.6898 -19563.3051 90.0693 220.7981 272.9421 50497.1794 -0.1967 -0.2232
ENERGY: 75000 1.3695 2.0106 2.6104 0.0000 -24730.7893 4212.5412 0.0000 0.0000 926.4384 -19585.8191 88.8348 -20512.2575 -19583.3265 89.8584 28.6376 65.7677 50863.4268 0.1194 -0.3844
TCL: Running 25000 steps at 120 kelvin.
TCL: Setting parameter langevinTemp to 120
TCL: Running for 25000 steps
ETITLE: TS BOND ANGLE DIHED IMPRP ELECT VDW BOUNDARY MISC KINETIC TOTAL TEMP POTENTIAL TOTAL3 TEMPAVG PRESSURE GPRESSURE VOLUME PRESSAVG GPRESSAVG
ENERGY: 75000 1.3695 2.0106 2.6104 0.0000 -24730.7893 4212.5412 0.0000 0.0000 925.9868 -19586.2707 88.7915 -20512.2575 -19584.2526 88.7915 7.0801 65.4040 50863.4268 7.0801 65.4040
ENERGY: 80000 3.3457 4.9757 2.3480 0.0000 -24320.9799 4136.4877 0.0000 0.0000 1261.6098 -18912.2130 120.9739 -20173.8228 -18908.4442 117.6151 433.4817 478.4749 50964.1679 3.1299 3.4565
ENERGY: 85000 1.1611 5.1641 2.2040 0.0000 -24274.0154 4110.4100 0.0000 0.0000 1238.7401 -18916.3361 118.7809 -20155.0762 -18913.7394 120.0743 323.0980 392.5806 50928.3009 3.4512 3.2892
ENERGY: 90000 2.5079 5.6216 1.6009 0.0000 -24426.1399 4212.7783 0.0000 0.0000 1280.8605 -18922.7707 122.8198 -20203.6312 -18919.3370 119.8948 638.4500 703.6298 50963.4113 4.2682 4.5351
ENERGY: 95000 0.8002 2.2984 1.7595 0.0000 -24379.8812 4170.7918 0.0000 0.0000 1230.9413 -18973.2900 118.0331 -20204.2314 -18971.4493 120.7747 530.3609 557.0630 51038.6498 3.3348 3.5200
ENERGY: 100000 1.5914 6.1114 3.0154 0.0000 -24452.4041 4247.4451 0.0000 0.0000 1243.8124 -18950.4283 119.2673 -20194.2407 -18947.4695 120.6390 822.7562 881.1018 50967.8875 3.4027 3.4888
TCL: Running 25000 steps at 150 kelvin.
TCL: Setting parameter langevinTemp to 150
TCL: Running for 25000 steps
ETITLE: TS BOND ANGLE DIHED IMPRP ELECT VDW BOUNDARY MISC KINETIC TOTAL TEMP POTENTIAL TOTAL3 TEMPAVG PRESSURE GPRESSURE VOLUME PRESSAVG GPRESSAVG
ENERGY: 100000 1.5914 6.1114 3.0154 0.0000 -24452.4041 4247.4451 0.0000 0.0000 1243.1875 -18951.0532 119.2074 -20194.2407 -18949.0383 119.2074 823.6466 881.7401 50967.8875 823.6466 881.7401
ENERGY: 105000 4.3241 3.3627 1.8867 0.0000 -23729.3757 3858.7737 0.0000 0.0000 1580.2843 -18280.7441 151.5311 -19861.0285 -18277.8323 146.8222 -456.3548 -410.1148 51835.6751 3.6596 3.0664
ENERGY: 110000 1.9088 3.9673 2.0153 0.0000 -23747.6739 3855.6518 0.0000 0.0000 1553.8347 -18330.2960 148.9949 -19884.1307 -18326.6566 150.8526 -335.8264 -292.8452 51470.8741 -2.0093 -2.3939
ENERGY: 115000 3.1939 2.8621 2.4784 0.0000 -24010.7587 4067.5796 0.0000 0.0000 1564.1675 -18370.4772 149.9857 -19934.6447 -18365.9845 150.2410 555.8502 583.6160 50960.3197 1.5492 1.8455
ENERGY: 120000 2.9991 5.2757 2.2388 0.0000 -23788.0188 3843.1686 0.0000 0.0000 1558.2008 -18376.1358 149.4136 -19934.3366 -18373.9291 150.0941 -448.3704 -389.9764 51132.6449 1.2487 1.0912
ENERGY: 125000 1.4492 2.8281 2.3284 0.0000 -23819.7343 3860.0757 0.0000 0.0000 1580.7968 -18372.2561 151.5802 -19953.0529 -18369.4671 150.9626 -499.7906 -487.6196 51467.6091 -3.1740 -3.4244
TCL: Running 50000 steps at 180 kelvin.
TCL: Setting parameter langevinTemp to 180
TCL: Running for 50000 steps
ETITLE: TS BOND ANGLE DIHED IMPRP ELECT VDW BOUNDARY MISC KINETIC TOTAL TEMP POTENTIAL TOTAL3 TEMPAVG PRESSURE GPRESSURE VOLUME PRESSAVG GPRESSAVG
ENERGY: 125000 1.4492 2.8281 2.3284 0.0000 -23819.7343 3860.0757 0.0000 0.0000 1580.0218 -18373.0312 151.5059 -19953.0529 -18370.4756 151.5059 -533.1553 -488.1650 51467.6091 -533.1553 -488.1650
ENERGY: 135000 3.1205 4.1237 5.3906 0.0000 -23379.6301 3917.2486 0.0000 0.0000 1854.2888 -17595.4579 177.8050 -19449.7467 -17590.6971 179.8580 723.3571 802.9943 51310.9880 6.6035 6.8298
ENERGY: 145000 4.0863 5.4725 3.1226 0.0000 -23390.7932 3872.7818 0.0000 0.0000 1886.6991 -17618.6309 180.9128 -19505.3300 -17612.2137 179.4701 267.7531 297.5234 51760.2480 -0.9605 -1.3971
ENERGY: 155000 1.6562 4.5247 1.4391 0.0000 -23448.9427 3902.2156 0.0000 0.0000 1951.6751 -17587.4321 187.1432 -19539.1072 -17582.1241 179.7523 634.0485 687.8656 51190.6356 0.5380 0.6791
ENERGY: 165000 1.8665 4.3298 2.8312 0.0000 -23338.2586 3870.7660 0.0000 0.0000 1853.9779 -17604.4871 177.7752 -19458.4650 -17600.5866 180.9765 513.5463 593.1115 51314.0322 -3.2006 -2.7790
ENERGY: 175000 2.7465 3.7548 2.2349 0.0000 -23228.9908 3702.2953 0.0000 0.0000 1855.2453 -17662.7139 177.8967 -19517.9592 -17656.9997 180.4690 -396.4045 -354.8357 51544.2292 6.3200 6.4258
TCL: Running 50000 steps at 210 kelvin.
TCL: Setting parameter langevinTemp to 210
TCL: Running for 50000 steps
ETITLE: TS BOND ANGLE DIHED IMPRP ELECT VDW BOUNDARY MISC KINETIC TOTAL TEMP POTENTIAL TOTAL3 TEMPAVG PRESSURE GPRESSURE VOLUME PRESSAVG GPRESSAVG
ENERGY: 175000 2.7465 3.7548 2.2349 0.0000 -23228.9908 3702.2953 0.0000 0.0000 1854.3011 -17663.6581 177.8062 -19517.9592 -17659.8951 177.8062 -414.3938 -353.5026 51544.2292 -414.3938 -353.5026
ENERGY: 185000 2.6951 3.8178 2.7525 0.0000 -22100.4266 3364.0086 0.0000 0.0000 2228.0915 -16499.0611 213.6484 -18727.1526 -16492.7877 209.0869 -209.8609 -125.2451 51394.7510 6.9776 7.0056
ENERGY: 195000 4.6118 4.5569 4.3397 0.0000 -22020.3771 3328.3897 0.0000 0.0000 2242.4221 -16436.0570 215.0225 -18678.4791 -16433.0013 211.1775 -269.1268 -172.6993 51104.4021 6.3006 6.6907
ENERGY: 205000 4.3244 5.6230 4.7354 0.0000 -22024.2590 3327.7013 0.0000 0.0000 2241.2328 -16440.6421 214.9085 -18681.8749 -16437.3491 211.0009 -195.8524 -86.7615 50922.2445 7.2624 7.3921
ENERGY: 215000 2.3395 5.5630 6.0912 0.0000 -21997.5112 3273.5224 0.0000 0.0000 2186.0202 -16523.9748 209.6142 -18709.9951 -16517.7192 210.3811 -679.4846 -568.4679 51476.4498 2.7256 2.4866
ENERGY: 225000 1.9725 5.5359 3.8757 0.0000 -22146.2404 3425.6302 0.0000 0.0000 2140.9739 -16568.2522 205.2948 -18709.2261 -16565.9820 209.4989 209.2953 263.0629 51093.9808 4.8649 5.2679
TCL: Running 50000 steps at 240 kelvin.
TCL: Setting parameter langevinTemp to 240
TCL: Running for 50000 steps
ETITLE: TS BOND ANGLE DIHED IMPRP ELECT VDW BOUNDARY MISC KINETIC TOTAL TEMP POTENTIAL TOTAL3 TEMPAVG PRESSURE GPRESSURE VOLUME PRESSAVG GPRESSAVG
ENERGY: 225000 1.9725 5.5359 3.8757 0.0000 -22146.2404 3425.6302 0.0000 0.0000 2139.8708 -16569.3553 205.1890 -18709.2261 -16566.0753 205.1890 192.9635 260.9971 51093.9808 192.9635 260.9971
ENERGY: 235000 2.2838 8.7037 5.7654 0.0000 -20976.0099 3031.0546 0.0000 0.0000 2529.9437 -15398.2587 242.5925 -17928.2024 -15391.9149 240.6365 -197.7944 -86.0705 51628.7345 1.3469 1.8274
ENERGY: 245000 3.4225 6.5051 3.5355 0.0000 -20733.7989 2964.6655 0.0000 0.0000 2457.7564 -15297.9139 235.6706 -17755.6703 -15292.0932 240.1620 -15.6123 50.0574 51261.0751 -0.5492 -0.4567
ENERGY: 255000 2.5562 4.5694 4.5244 0.0000 -20967.6913 3071.9257 0.0000 0.0000 2520.4916 -15363.6240 241.6862 -17884.1156 -15358.3807 240.9424 299.0093 340.0444 51189.0923 5.4458 4.5320
ENERGY: 265000 2.8982 3.4247 5.2907 0.0000 -20784.8605 3003.3808 0.0000 0.0000 2484.4693 -15285.3967 238.2321 -17769.8660 -15279.3571 241.9806 -122.0718 -33.0361 52068.7654 2.6810 2.3297
ENERGY: 275000 3.4445 7.6550 3.7802 0.0000 -21013.8785 3084.5602 0.0000 0.0000 2534.2782 -15380.1604 243.0082 -17914.4386 -15376.6505 239.9503 345.6691 458.7293 51119.7255 0.6888 -0.1375
TCL: Running 50000 steps at 270 kelvin.
TCL: Setting parameter langevinTemp to 270
TCL: Running for 50000 steps
ETITLE: TS BOND ANGLE DIHED IMPRP ELECT VDW BOUNDARY MISC KINETIC TOTAL TEMP POTENTIAL TOTAL3 TEMPAVG PRESSURE GPRESSURE VOLUME PRESSAVG GPRESSAVG
ENERGY: 275000 3.4445 7.6550 3.7802 0.0000 -21013.8785 3084.5602 0.0000 0.0000 2533.0378 -15381.4008 242.8892 -17914.4386 -15377.8056 242.8892 372.3014 457.7714 51119.7255 372.3014 457.7714
ENERGY: 285000 2.1821 5.4620 2.9605 0.0000 -20088.4268 2881.3217 0.0000 0.0000 2824.4167 -14372.0839 270.8291 -17196.5006 -14367.2357 270.7934 491.0548 590.3365 52201.5131 -0.2080 0.0394
ENERGY: 295000 2.5113 7.5418 7.5367 0.0000 -19802.0443 2720.4213 0.0000 0.0000 2730.5083 -14333.5248 261.8244 -17064.0331 -14329.8070 270.2281 -253.4165 -179.4587 52955.1375 4.2541 4.6158
ENERGY: 305000 2.8336 5.6687 6.1268 0.0000 -20003.7015 2796.5076 0.0000 0.0000 2865.1669 -14327.3981 274.7366 -17192.5650 -14321.0801 269.1755 133.4494 240.6304 52315.6557 1.9524 2.4567
ENERGY: 315000 3.2404 5.9843 2.1517 0.0000 -20013.6546 2810.1570 0.0000 0.0000 2738.3987 -14453.7225 262.5810 -17192.1212 -14447.2395 269.8555 -153.9204 -64.6263 52894.6111 1.4132 1.6130
ENERGY: 325000 3.0451 8.5031 7.3087 0.0000 -19864.4967 2758.7093 0.0000 0.0000 2882.3376 -14204.5930 276.3831 -17086.9305 -14201.9495 270.0359 -40.2327 77.7328 52601.0422 3.6359 4.1863
TCL: Running 1000000 steps at 300 kelvin.
TCL: Setting parameter langevinTemp to 300
TCL: Running for 1000000 steps
ETITLE: TS BOND ANGLE DIHED IMPRP ELECT VDW BOUNDARY MISC KINETIC TOTAL TEMP POTENTIAL TOTAL3 TEMPAVG PRESSURE GPRESSURE VOLUME PRESSAVG GPRESSAVG
ENERGY: 325000 3.0451 8.5031 7.3087 0.0000 -19864.4967 2758.7093 0.0000 0.0000 2880.9477 -14205.9828 276.2498 -17086.9305 -14201.6796 276.2498 -8.2929 76.7869 52601.0422 -8.2929 76.7869
ENERGY: 525000 5.6357 12.2772 2.3982 0.0000 -19164.5077 2616.1567 0.0000 0.0000 3114.7100 -13413.3297 298.6649 -16528.0397 -13407.2681 299.9029 26.3280 59.4798 53791.2572 4.4667 3.9790
ENERGY: 725000 2.8439 8.6935 6.7782 0.0000 -18817.4216 2493.2697 0.0000 0.0000 3074.1648 -13231.6714 294.7771 -16305.8362 -13224.3500 301.3187 -394.5773 -325.8045 54717.7771 -1.5491 -0.8458
ENERGY: 925000 8.0660 7.7344 4.2491 0.0000 -18894.0877 2427.4681 0.0000 0.0000 3157.7086 -13288.8615 302.7880 -16446.5701 -13282.6348 300.9048 -666.7939 -564.5552 54602.9017 2.3652 2.2075
ENERGY: 1125000 6.2141 4.3122 5.6028 0.0000 -19011.2058 2538.5049 0.0000 0.0000 3198.2898 -13258.2820 306.6792 -16456.5717 -13251.9644 301.3945 -239.6055 -161.7537 54426.7360 3.0264 2.9422
ENERGY: 1325000 4.6337 5.5854 5.2279 0.0000 -19119.4971 2628.9956 0.0000 0.0000 3164.0456 -13311.0088 303.3956 -16475.0544 -13305.6741 300.6325 328.4417 414.1995 53890.6933 4.3263 4.5193
TCL: Exiting due to exit command.
