Info: SIMULATION PARAMETERS:
Info: TIMESTEP               2
Info: NUMBER OF STEPS        0
Info: STEPS PER CYCLE        10
Info: PERIODIC CELL BASIS 1  41.123 0 0
Info: PERIODIC CELL BASIS 2  0 41.086 0
Info: PERIODIC CELL BASIS 3  0 0 39.527
Info: PERIODIC CELL CENTER   0 0 0
Info: WRAPPING WATERS AROUND PERIODIC BOUNDARIES ON OUTPUT.
Info: WRAPPING ALL CLUSTERS AROUND PERIODIC BOUNDARIES ON OUTPUT.
Info: FIRST LDB TIMESTEP     50
Info: LAST LDB TIMESTEP     -1
Info: HOM BACKGROUND SCALING 1
Info: PME BACKGROUND SCALING 1
Info: MIN ATOMS PER PATCH    40
Info: EMPTY PATCH LOAD       40 ATOMS
Info: INITIAL TEMPERATURE    300
Info: CENTER OF MASS MOVING INITIALLY? NO
Info: DIELECTRIC             1
Info: EXCLUDE                SCALED ONE-FOUR
Info: 1-4 ELECTROSTATICS SCALED BY 0.833333
Info: MODIFIED 1-4 VDW PARAMETERS WILL BE USED
Info: DCD FILENAME           mobley_430089_min.dcd
Info: DCD FREQUENCY          5000
Info: DCD FIRST STEP         5000
Info: DCD FILE WILL CONTAIN UNIT CELL DATA
Info: XST FILENAME           mobley_430089_min.xst
Info: XST FREQUENCY          5000
Info: NO VELOCITY DCD OUTPUT
Info: NO FORCE DCD OUTPUT
Info: OUTPUT FILENAME        mobley_430089_min
Info: BINARY OUTPUT FILES WILL BE USED
Info: RESTART FILENAME       mobley_430089_min.restart
Info: RESTART FREQUENCY      5000
Info: BINARY RESTART FILES WILL BE USED
Info: CUTOFF                 9
Info: PAIRLIST DISTANCE      11
Info: PAIRLIST SHRINK RATE   0.01
Info: PAIRLIST GROW RATE     0.01
Info: PAIRLIST TRIGGER       0.3
Info: PAIRLISTS PER CYCLE    2
Info: PAIRLISTS ENABLED
Info: MARGIN                 8
Info: HYDROGEN GROUP CUTOFF  2.5
Info: PATCH DIMENSION        21.5
Info: ENERGY OUTPUT STEPS    5000
Info: ENERGY EVALUATION STEPS    5000
Info: OUTPUT ENERGY PRECISION 4
Info: CROSSTERM ENERGY INCLUDED IN DIHEDRAL
Info: TIMING OUTPUT STEPS    50000
Info: PRESSURE OUTPUT STEPS  5000
Info: LANGEVIN DYNAMICS ACTIVE
Info: LANGEVIN TEMPERATURE   300
Info: LANGEVIN USING BBK INTEGRATOR
Info: LANGEVIN DAMPING COEFFICIENT IS 1 INVERSE PS
Info: LANGEVIN DYNAMICS APPLIED TO HYDROGENS
Info: LANGEVIN PISTON PRESSURE CONTROL ACTIVE
Info:        TARGET PRESSURE IS 1.01325 BAR
Info:     OSCILLATION PERIOD IS 50 FS
Info:             DECAY TIME IS 25 FS
Info:     PISTON TEMPERATURE IS 300 K
Info:       PRESSURE CONTROL IS GROUP-BASED
Info:    INITIAL STRAIN RATE IS 0 0 0
Info:       CELL FLUCTUATION IS ISOTROPIC
Info: PARTICLE MESH EWALD (PME) ACTIVE
Info: PME TOLERANCE               1e-06
Info: PME EWALD COEFFICIENT       0.348832
Info: PME INTERPOLATION ORDER     4
Info: PME GRID DIMENSIONS         44 44 40
Info: PME MAXIMUM GRID SPACING    1
Info: FULL ELECTROSTATIC EVALUATION FREQUENCY      2
Info: USING VERLET I (r-RESPA) MTS SCHEME.
Info: C1 SPLITTING OF LONG RANGE ELECTROSTATICS
Info: PLACING ATOMS IN PATCHES BY HYDROGEN GROUPS
Info: RIGID BONDS TO HYDROGEN : ALL
Info:         ERROR TOLERANCE : 1e-08
Info:          MAX ITERATIONS : 100
Info: RIGID WATER USING SETTLE ALGORITHM
Info: RANDOM NUMBER SEED     1741336787
Info: USE HYDROGEN BONDS?    NO
Info: Using AMBER format force field!
Info: AMBER PARM FILE        mobley_430089.prmtop
Info: COORDINATE PDB         mobley_430089.pdb
Info: Exclusions will be read from PARM file!
Info: SCNB (VDW SCALING)     2
Info: USING ARITHMETIC MEAN TO COMBINE L-J SIGMA PARAMETERS
Info: SUMMARY OF PARAMETERS:
Info: 7 BONDS
Info: 7 ANGLES
Info:   7 HARMONIC
Info:   0 COSINE-BASED
Info: 4 DIHEDRAL
Info: 0 IMPROPER
Info: 0 CROSSTERM
Info: 0 VDW
Info: 21 VDW_PAIRS
Info: 0 NBTHOLE_PAIRS
Info: STRUCTURE SUMMARY:
Info: 4738 ATOMS
Info: 4737 BONDS
Info: 20 ANGLES
Info: 22 DIHEDRALS
Info: 0 IMPROPERS
Info: 0 CROSSTERMS
Info: 4779 EXCLUSIONS
Info: 4733 RIGID BONDS
Info: 9481 DEGREES OF FREEDOM
Info: 1580 HYDROGEN GROUPS
Info: 4 ATOMS IN LARGEST HYDROGEN GROUP
Info: 1580 MIGRATION GROUPS
Info: 4 ATOMS IN LARGEST MIGRATION GROUP
Info: TOTAL MASS = 28443.3 amu
Info: TOTAL CHARGE = 9.99928e-05 e
Info: MASS DENSITY = 0.70724 g/cm^3
Info: ATOM DENSITY = 0.0709451 atoms/A^3
Info: ADDED 0 IMPLICIT EXCLUSIONS
Info: NONBONDED TABLE R-SQUARED SPACING: 0.0625
Info: NONBONDED TABLE SIZE: 705 POINTS
Info: REMOVING COM VELOCITY 0.0496724 -0.0294047 -0.0823746
TCL: Minimizing for 2000 steps
ETITLE: TS BOND ANGLE DIHED IMPRP ELECT VDW BOUNDARY MISC KINETIC TOTAL TEMP POTENTIAL TOTAL3 TEMPAVG PRESSURE GPRESSURE VOLUME PRESSAVG GPRESSAVG
ENERGY: 0 0.1307 0.1492 0.0070 0.0000 -14572.4391 1603.9300 0.0000 0.0000 0.0000 -12968.2222 0.0000 -12968.2222 -12968.2222 0.0000 10562.7491 -15540.1353 66784.0120 10562.7491 -15540.1353
ENERGY: 400 5.0644 0.4824 0.0205 0.0000 -19699.5091 2795.1365 0.0000 0.0000 0.0000 -16898.8053 0.0000 -16898.8053 -16898.8053 0.0000 15013.5454 15165.4373 66784.0120 15013.5454 15165.4373
ENERGY: 800 26.4636 3.5430 0.0358 0.0000 -20858.9898 3388.4105 0.0000 0.0000 0.0000 -17440.5370 0.0000 -17440.5370 -17440.5370 0.0000 17769.4756 17932.7281 66784.0120 17769.4756 17932.7281
ENERGY: 1200 0.5492 0.2050 0.0152 0.0000 -21217.0977 3558.9136 0.0000 0.0000 0.0000 -17657.4147 0.0000 -17657.4147 -17657.4147 0.0000 18642.0187 18779.2373 66784.0120 18642.0187 18779.2373
ENERGY: 1600 0.2433 0.1676 0.0130 0.0000 -21464.2606 3670.7987 0.0000 0.0000 0.0000 -17793.0379 0.0000 -17793.0379 -17793.0379 0.0000 19220.1619 19341.4722 66784.0120 19220.1619 19341.4722
ENERGY: 2000 0.3641 0.1422 0.0229 0.0000 -21614.7050 3734.2636 0.0000 0.0000 0.0000 -17879.9121 0.0000 -17879.9121 -17879.9121 0.0000 19542.3021 19656.7719 66784.0120 19542.3021 19656.7719
TCL: Exiting due to exit command.
Info: NAMD 3.0.1 for Linux-x86_64-multicore
Info: Please visit http://www.ks.uiuc.edu/Research/namd/
Info: for updates, documentation, and support information.
Info: Please cite Phillips et al., J. Chem. Phys. 153:044130 (2020) doi:10.1063/5.0014475
Info: in all publications reporting results obtained with NAMD.
Info: Based on Charm++/Converse 80000 for multicore-linux-x86_64-gcc
Info: Built Mon Oct 14 11:11:06 CDT 2024 by dhardy on athine.ks.uiuc.edu
Info: 1 NAMD  3.0.1  Linux-x86_64-multicore  16    k010  z5358697
Info: Running on 16 processors, 1 nodes, 1 physical nodes.
Info: CPU topology information available.
Info: Charm++/Converse parallel runtime startup completed at 0.00935743 s
Info: 1043.45 MB of memory in use based on /proc/self/stat
Info: Configuration file is mobley_430089_equil.namd
Info: Working in the current directory /srv/scratch/z5358697/prod_prep_5/430089
TCL: Running 25000 steps at 30 kelvin.
TCL: Suspending until startup complete.
Info: SIMULATION PARAMETERS:
Info: TIMESTEP               2
Info: NUMBER OF STEPS        0
Info: STEPS PER CYCLE        10
Info: PERIODIC CELL BASIS 1  41.123 0 0
Info: PERIODIC CELL BASIS 2  0 41.086 0
Info: PERIODIC CELL BASIS 3  0 0 39.527
Info: PERIODIC CELL CENTER   0 0 0
Info: WRAPPING WATERS AROUND PERIODIC BOUNDARIES ON OUTPUT.
Info: WRAPPING ALL CLUSTERS AROUND PERIODIC BOUNDARIES ON OUTPUT.
Info: FIRST LDB TIMESTEP     50
Info: LAST LDB TIMESTEP     -1
Info: HOM BACKGROUND SCALING 1
Info: PME BACKGROUND SCALING 1
Info: MIN ATOMS PER PATCH    40
Info: EMPTY PATCH LOAD       40 ATOMS
Info: INITIAL TEMPERATURE    300
Info: CENTER OF MASS MOVING INITIALLY? NO
Info: DIELECTRIC             1
Info: EXCLUDE                SCALED ONE-FOUR
Info: 1-4 ELECTROSTATICS SCALED BY 0.833333
Info: MODIFIED 1-4 VDW PARAMETERS WILL BE USED
Info: DCD FILENAME           mobley_430089_equil.dcd
Info: DCD FREQUENCY          5000
Info: DCD FIRST STEP         5000
Info: DCD FILE WILL CONTAIN UNIT CELL DATA
Info: XST FILENAME           mobley_430089_equil.xst
Info: XST FREQUENCY          5000
Info: NO VELOCITY DCD OUTPUT
Info: NO FORCE DCD OUTPUT
Info: OUTPUT FILENAME        mobley_430089_equil
Info: BINARY OUTPUT FILES WILL BE USED
Info: RESTART FILENAME       mobley_430089_equil.restart
Info: RESTART FREQUENCY      5000
Info: BINARY RESTART FILES WILL BE USED
Info: CUTOFF                 9
Info: PAIRLIST DISTANCE      11
Info: PAIRLIST SHRINK RATE   0.01
Info: PAIRLIST GROW RATE     0.01
Info: PAIRLIST TRIGGER       0.3
Info: PAIRLISTS PER CYCLE    2
Info: PAIRLISTS ENABLED
Info: MARGIN                 8
Info: HYDROGEN GROUP CUTOFF  2.5
Info: PATCH DIMENSION        21.5
Info: ENERGY OUTPUT STEPS    5000
Info: ENERGY EVALUATION STEPS    5000
Info: OUTPUT ENERGY PRECISION 4
Info: CROSSTERM ENERGY INCLUDED IN DIHEDRAL
Info: TIMING OUTPUT STEPS    50000
Info: PRESSURE OUTPUT STEPS  5000
Info: LANGEVIN DYNAMICS ACTIVE
Info: LANGEVIN TEMPERATURE   30
Info: LANGEVIN USING BBK INTEGRATOR
Info: LANGEVIN DAMPING COEFFICIENT IS 1 INVERSE PS
Info: LANGEVIN DYNAMICS APPLIED TO HYDROGENS
Info: LANGEVIN PISTON PRESSURE CONTROL ACTIVE
Info:        TARGET PRESSURE IS 1.01325 BAR
Info:     OSCILLATION PERIOD IS 50 FS
Info:             DECAY TIME IS 25 FS
Info:     PISTON TEMPERATURE IS 300 K
Info:       PRESSURE CONTROL IS GROUP-BASED
Info:    INITIAL STRAIN RATE IS 0 0 0
Info:       CELL FLUCTUATION IS ISOTROPIC
Info: PARTICLE MESH EWALD (PME) ACTIVE
Info: PME TOLERANCE               1e-06
Info: PME EWALD COEFFICIENT       0.348832
Info: PME INTERPOLATION ORDER     4
Info: PME GRID DIMENSIONS         44 44 40
Info: PME MAXIMUM GRID SPACING    1
Info: FULL ELECTROSTATIC EVALUATION FREQUENCY      2
Info: USING VERLET I (r-RESPA) MTS SCHEME.
Info: C1 SPLITTING OF LONG RANGE ELECTROSTATICS
Info: PLACING ATOMS IN PATCHES BY HYDROGEN GROUPS
Info: RIGID BONDS TO HYDROGEN : ALL
Info:         ERROR TOLERANCE : 1e-08
Info:          MAX ITERATIONS : 100
Info: RIGID WATER USING SETTLE ALGORITHM
Info: RANDOM NUMBER SEED     1741336806
Info: USE HYDROGEN BONDS?    NO
Info: Using AMBER format force field!
Info: AMBER PARM FILE        mobley_430089.prmtop
Info: COORDINATE PDB         mobley_430089.pdb
Info: Exclusions will be read from PARM file!
Info: SCNB (VDW SCALING)     2
Info: USING ARITHMETIC MEAN TO COMBINE L-J SIGMA PARAMETERS
Info: BINARY COORDINATES     mobley_430089_min.coor
Info: SUMMARY OF PARAMETERS:
Info: 7 BONDS
Info: 7 ANGLES
Info:   7 HARMONIC
Info:   0 COSINE-BASED
Info: 4 DIHEDRAL
Info: 0 IMPROPER
Info: 0 CROSSTERM
Info: 0 VDW
Info: 21 VDW_PAIRS
Info: 0 NBTHOLE_PAIRS
Info: STRUCTURE SUMMARY:
Info: 4738 ATOMS
Info: 4737 BONDS
Info: 20 ANGLES
Info: 22 DIHEDRALS
Info: 0 IMPROPERS
Info: 0 CROSSTERMS
Info: 4779 EXCLUSIONS
Info: 4733 RIGID BONDS
Info: 9481 DEGREES OF FREEDOM
Info: 1580 HYDROGEN GROUPS
Info: 4 ATOMS IN LARGEST HYDROGEN GROUP
Info: 1580 MIGRATION GROUPS
Info: 4 ATOMS IN LARGEST MIGRATION GROUP
Info: TOTAL MASS = 28443.3 amu
Info: TOTAL CHARGE = 9.99928e-05 e
Info: MASS DENSITY = 0.70724 g/cm^3
Info: ATOM DENSITY = 0.0709451 atoms/A^3
Info: ADDED 0 IMPLICIT EXCLUSIONS
Info: NONBONDED TABLE R-SQUARED SPACING: 0.0625
Info: NONBONDED TABLE SIZE: 705 POINTS
Info: REMOVING COM VELOCITY -0.0515223 -0.0891604 0.00629322
TCL: Running for 25000 steps
ETITLE: TS BOND ANGLE DIHED IMPRP ELECT VDW BOUNDARY MISC KINETIC TOTAL TEMP POTENTIAL TOTAL3 TEMPAVG PRESSURE GPRESSURE VOLUME PRESSAVG GPRESSAVG
ENERGY: 0 0.3641 0.1422 0.0229 0.0000 -21614.7050 3734.2636 0.0000 0.0000 2842.2775 -15037.6346 301.7190 -17879.9121 -15037.0647 301.7190 207.7076 247.9784 66784.0120 207.7076 247.9784
ENERGY: 5000 0.4968 0.7220 0.0694 0.0000 -22568.2138 3745.8827 0.0000 0.0000 284.9090 -18536.1338 30.2442 -18821.0428 -18535.2970 48.5219 -996.4257 -938.5215 45857.2098 4.2680 4.3949
ENERGY: 10000 0.0522 0.7228 0.0274 0.0000 -22692.6455 3823.3816 0.0000 0.0000 287.7004 -18580.7611 30.5405 -18868.4615 -18579.8672 30.2460 -617.9971 -567.6629 45680.2201 7.5547 7.6349
ENERGY: 15000 0.3248 0.6371 0.0358 0.0000 -22925.9407 4029.0562 0.0000 0.0000 287.9997 -18607.8871 30.5723 -18895.8868 -18607.1947 30.2181 432.5088 479.9317 45349.9115 2.2385 2.3919
ENERGY: 20000 0.0473 0.7501 0.1295 0.0000 -22709.1584 3784.1045 0.0000 0.0000 281.6101 -18642.5169 29.8940 -18924.1270 -18641.6595 30.1812 -1005.0816 -956.1364 45691.2478 3.1444 3.2553
ENERGY: 25000 0.1064 0.7824 0.0588 0.0000 -22749.7553 3816.7840 0.0000 0.0000 282.9978 -18649.0258 30.0413 -18932.0236 -18648.3932 30.2255 -791.9154 -758.8435 45610.0593 3.6583 3.6548
TCL: Running 25000 steps at 60 kelvin.
TCL: Setting parameter langevinTemp to 60
TCL: Running for 25000 steps
ETITLE: TS BOND ANGLE DIHED IMPRP ELECT VDW BOUNDARY MISC KINETIC TOTAL TEMP POTENTIAL TOTAL3 TEMPAVG PRESSURE GPRESSURE VOLUME PRESSAVG GPRESSAVG
ENERGY: 25000 0.1064 0.7824 0.0588 0.0000 -22749.7553 3816.7840 0.0000 0.0000 282.8559 -18649.1677 30.0263 -18932.0236 -18648.4971 30.0263 -810.0839 -758.9017 45610.0593 -810.0839 -758.9017
ENERGY: 30000 1.1104 0.7843 0.0952 0.0000 -22431.7774 3769.7112 0.0000 0.0000 547.8792 -18112.1970 58.1596 -18660.0763 -18110.8942 56.5408 -449.6028 -410.9699 45843.2978 4.6997 4.7197
ENERGY: 35000 0.1048 1.1161 0.0897 0.0000 -22692.2548 4010.5130 0.0000 0.0000 557.5174 -18122.9138 59.1827 -18680.4312 -18121.3365 59.9663 703.8911 790.1236 45467.3785 -1.0907 -1.0360
ENERGY: 40000 0.5268 1.1676 0.1363 0.0000 -22562.1962 3853.0382 0.0000 0.0000 561.8054 -18145.5220 59.6379 -18707.3274 -18144.3840 60.3735 -113.8291 -46.4649 45653.4884 2.7999 2.8761
ENERGY: 45000 0.0664 1.3941 0.1220 0.0000 -22524.6863 3802.5301 0.0000 0.0000 580.2507 -18140.3230 61.5959 -18720.5737 -18138.1799 60.1335 -421.4790 -376.7983 45713.3978 -2.3251 -2.7030
ENERGY: 50000 0.1954 1.1358 0.2062 0.0000 -22537.4118 3818.1720 0.0000 0.0000 568.5940 -18149.1083 60.3585 -18717.7023 -18147.5931 60.0220 -336.7501 -273.7157 45674.9443 4.5872 4.8303
TCL: Running 25000 steps at 90 kelvin.
TCL: Setting parameter langevinTemp to 90
TCL: Running for 25000 steps
ETITLE: TS BOND ANGLE DIHED IMPRP ELECT VDW BOUNDARY MISC KINETIC TOTAL TEMP POTENTIAL TOTAL3 TEMPAVG PRESSURE GPRESSURE VOLUME PRESSAVG GPRESSAVG
ENERGY: 50000 0.1954 1.1358 0.2062 0.0000 -22537.4118 3818.1720 0.0000 0.0000 568.3131 -18149.3893 60.3287 -18717.7023 -18148.2769 60.3287 -330.4724 -273.8538 45674.9443 -330.4724 -273.8538
ENERGY: 55000 0.3060 1.8658 0.2030 0.0000 -22248.6660 3803.0658 0.0000 0.0000 849.1678 -17594.0577 90.1425 -18443.2254 -17592.3474 86.8753 153.7986 205.0667 45974.1777 4.9102 4.9384
ENERGY: 60000 0.6305 1.5268 0.0544 0.0000 -22118.7671 3637.4268 0.0000 0.0000 861.7050 -17617.4235 91.4734 -18479.1285 -17614.8382 90.2394 -783.3610 -748.5679 46196.1446 7.0508 6.8805
ENERGY: 65000 0.6552 1.1427 0.1739 0.0000 -22258.9133 3727.0431 0.0000 0.0000 855.1510 -17674.7473 90.7777 -18529.8984 -17673.1995 89.7193 -287.3383 -229.8039 45794.9776 9.2267 9.1308
ENERGY: 70000 0.0330 1.8872 0.3717 0.0000 -22312.9735 3768.6600 0.0000 0.0000 850.1223 -17691.8994 90.2439 -18542.0216 -17689.7113 90.4629 -168.2162 -137.0402 45807.5120 -1.5278 -1.7166
ENERGY: 75000 0.4174 2.2769 0.1277 0.0000 -22244.0746 3676.6314 0.0000 0.0000 852.8501 -17711.7712 90.5334 -18564.6213 -17709.9533 89.8061 -775.2765 -703.8277 45993.6929 6.1254 5.7848
TCL: Running 25000 steps at 120 kelvin.
TCL: Setting parameter langevinTemp to 120
TCL: Running for 25000 steps
ETITLE: TS BOND ANGLE DIHED IMPRP ELECT VDW BOUNDARY MISC KINETIC TOTAL TEMP POTENTIAL TOTAL3 TEMPAVG PRESSURE GPRESSURE VOLUME PRESSAVG GPRESSAVG
ENERGY: 75000 0.4174 2.2769 0.1277 0.0000 -22244.0746 3676.6314 0.0000 0.0000 852.4222 -17712.1990 90.4880 -18564.6213 -17710.3293 90.4880 -749.9337 -704.3284 45993.6929 -749.9337 -704.3284
ENERGY: 80000 0.5828 2.1041 0.2294 0.0000 -21974.2796 3738.6319 0.0000 0.0000 1142.3495 -17090.3818 121.2649 -18232.7312 -17086.7665 117.2859 456.2079 524.0376 45839.7163 -0.9259 -1.1418
ENERGY: 85000 0.3178 1.8467 0.1415 0.0000 -22133.2412 3834.9760 0.0000 0.0000 1130.9783 -17164.9808 120.0578 -18295.9592 -17162.3136 120.6511 796.1316 890.9817 45593.7149 7.7479 7.1507
ENERGY: 90000 1.1009 2.6596 1.1135 0.0000 -22160.7279 3858.7618 0.0000 0.0000 1124.0999 -17172.9922 119.3277 -18297.0920 -17170.9655 119.4049 934.3888 967.2610 45709.9290 2.4916 2.6787
ENERGY: 95000 0.3549 1.9834 0.1424 0.0000 -21883.7299 3570.8282 0.0000 0.0000 1128.6411 -17181.7798 119.8097 -18310.4210 -17179.5266 120.1956 -697.9632 -659.4217 46390.8182 -2.5806 -2.6335
ENERGY: 100000 0.1369 2.2344 0.2524 0.0000 -21919.9528 3584.0573 0.0000 0.0000 1122.8574 -17210.4144 119.1958 -18333.2718 -17208.4040 120.4667 -615.3293 -590.2041 46255.2215 -1.2434 -1.2698
TCL: Running 25000 steps at 150 kelvin.
TCL: Setting parameter langevinTemp to 150
TCL: Running for 25000 steps
ETITLE: TS BOND ANGLE DIHED IMPRP ELECT VDW BOUNDARY MISC KINETIC TOTAL TEMP POTENTIAL TOTAL3 TEMPAVG PRESSURE GPRESSURE VOLUME PRESSAVG GPRESSAVG
ENERGY: 100000 0.1369 2.2344 0.2524 0.0000 -21919.9528 3584.0573 0.0000 0.0000 1122.3043 -17210.9675 119.1371 -18333.2718 -17208.6178 119.1371 -644.0158 -590.8723 46255.2215 -644.0158 -590.8723
ENERGY: 105000 0.3977 4.0986 0.1005 0.0000 -21551.9500 3602.9419 0.0000 0.0000 1426.5351 -16517.8762 151.4324 -17944.4113 -16513.5111 147.8524 213.2356 298.6491 46504.2875 5.5612 5.3110
ENERGY: 110000 0.3586 1.8979 0.4420 0.0000 -21519.0361 3510.6220 0.0000 0.0000 1405.4779 -16600.2376 149.1971 -18005.7155 -16597.2698 149.4423 -245.0104 -183.0953 46416.8059 7.5142 7.3631
ENERGY: 115000 0.5140 1.7959 0.7298 0.0000 -21437.9645 3495.8269 0.0000 0.0000 1417.1563 -16521.9416 150.4368 -17939.0979 -16519.2258 150.4706 -220.5191 -180.6016 46466.0207 2.0516 1.6888
ENERGY: 120000 1.3251 2.0633 0.2255 0.0000 -21600.6158 3553.5303 0.0000 0.0000 1400.2747 -16643.1969 148.6447 -18043.4716 -16640.0754 150.0830 -134.8393 -92.7549 46360.8584 -0.6644 -1.1654
ENERGY: 125000 0.2572 1.6219 0.0301 0.0000 -21614.4103 3597.0812 0.0000 0.0000 1424.5709 -16590.8490 151.2239 -18015.4199 -16588.3405 149.5762 231.1774 259.0872 46058.9353 6.1174 5.9868
TCL: Running 50000 steps at 180 kelvin.
TCL: Setting parameter langevinTemp to 180
TCL: Running for 50000 steps
ETITLE: TS BOND ANGLE DIHED IMPRP ELECT VDW BOUNDARY MISC KINETIC TOTAL TEMP POTENTIAL TOTAL3 TEMPAVG PRESSURE GPRESSURE VOLUME PRESSAVG GPRESSAVG
ENERGY: 125000 0.2572 1.6219 0.0301 0.0000 -21614.4103 3597.0812 0.0000 0.0000 1423.8787 -16591.5412 151.1504 -18015.4199 -16588.6677 151.1504 210.0243 258.2740 46058.9353 210.0243 258.2740
ENERGY: 135000 0.4225 2.2788 0.5780 0.0000 -21097.5738 3444.9894 0.0000 0.0000 1698.5649 -15950.7401 180.3094 -17649.3050 -15945.9059 179.0994 180.5541 287.8886 46423.8017 2.8796 2.8250
ENERGY: 145000 2.1632 1.8611 0.3787 0.0000 -20828.4583 3256.4684 0.0000 0.0000 1688.5880 -15878.9988 179.2503 -17567.5869 -15873.5635 179.9399 -861.6143 -835.8103 47055.5843 2.2741 2.3903
ENERGY: 155000 1.0385 4.5737 0.5049 0.0000 -20982.3987 3345.6365 0.0000 0.0000 1647.0987 -15983.5465 174.8461 -17630.6451 -15977.0397 181.1048 -408.7657 -320.9274 46583.8435 1.2228 1.5787
ENERGY: 165000 0.4353 5.3933 0.5089 0.0000 -21072.4985 3449.4215 0.0000 0.0000 1672.0632 -15944.6763 177.4961 -17616.7395 -15939.4197 180.7698 263.3150 298.9388 46475.6402 -0.4789 -0.9796
ENERGY: 175000 0.4430 5.3459 0.6062 0.0000 -20926.2763 3287.6910 0.0000 0.0000 1730.5220 -15901.6682 183.7018 -17632.1902 -15897.4802 179.5372 -579.9126 -571.7947 46730.2624 -1.5928 -1.6573
TCL: Running 50000 steps at 210 kelvin.
TCL: Setting parameter langevinTemp to 210
TCL: Running for 50000 steps
ETITLE: TS BOND ANGLE DIHED IMPRP ELECT VDW BOUNDARY MISC KINETIC TOTAL TEMP POTENTIAL TOTAL3 TEMPAVG PRESSURE GPRESSURE VOLUME PRESSAVG GPRESSAVG
ENERGY: 175000 0.4430 5.3459 0.6062 0.0000 -20926.2763 3287.6910 0.0000 0.0000 1729.6796 -15902.5106 183.6124 -17632.1902 -15898.6586 183.6124 -627.9701 -571.9266 46730.2624 -627.9701 -571.9266
ENERGY: 185000 0.7602 4.7361 0.1644 0.0000 -20042.3967 3115.2183 0.0000 0.0000 1938.7221 -14982.7957 205.8030 -16921.5177 -14980.5668 209.3255 -9.8386 46.6213 46783.9470 4.9980 4.2510
ENERGY: 195000 1.0169 2.6797 1.0425 0.0000 -19972.9156 3014.2503 0.0000 0.0000 2032.4847 -14921.4416 215.7563 -16953.9263 -14918.6197 209.6630 -265.9213 -164.0579 45979.3330 3.7569 3.7279
ENERGY: 205000 0.8813 4.9264 0.1276 0.0000 -19855.1266 2910.9177 0.0000 0.0000 2009.0450 -14929.2286 213.2681 -16938.2736 -14923.4106 209.2711 -833.5516 -728.4743 46395.8358 -0.7525 -1.2746
ENERGY: 215000 1.3196 4.4008 0.0904 0.0000 -19800.5025 2950.3559 0.0000 0.0000 1961.4518 -14882.8839 208.2159 -16844.3357 -14877.7947 209.9067 -473.4765 -343.3615 46278.3643 0.6269 0.8920
ENERGY: 225000 1.4062 5.1684 0.1492 0.0000 -19815.0081 2905.3819 0.0000 0.0000 1969.9386 -14932.9638 209.1168 -16902.9023 -14927.1427 211.2224 -793.4689 -710.9203 46265.9755 -2.2874 -1.8070
TCL: Running 50000 steps at 240 kelvin.
TCL: Setting parameter langevinTemp to 240
TCL: Running for 50000 steps
ETITLE: TS BOND ANGLE DIHED IMPRP ELECT VDW BOUNDARY MISC KINETIC TOTAL TEMP POTENTIAL TOTAL3 TEMPAVG PRESSURE GPRESSURE VOLUME PRESSAVG GPRESSAVG
ENERGY: 225000 1.4062 5.1684 0.1492 0.0000 -19815.0081 2905.3819 0.0000 0.0000 1968.9114 -14933.9910 209.0078 -16902.9023 -14930.5991 209.0078 -785.0795 -710.1395 46265.9755 -785.0795 -710.1395
ENERGY: 235000 1.1713 3.7164 0.5363 0.0000 -18813.0947 2689.8126 0.0000 0.0000 2254.9077 -13862.9504 239.3674 -16117.8581 -13857.0670 241.0939 -321.6194 -223.1050 47284.0259 -1.0701 -1.5933
ENERGY: 245000 1.1040 4.2524 0.0910 0.0000 -18962.5958 2735.1467 0.0000 0.0000 2237.5598 -13984.4419 237.5258 -16222.0017 -13976.6655 238.6546 -183.0043 -82.3919 46558.4901 -0.9966 -1.2603
ENERGY: 255000 1.4520 6.2496 0.1468 0.0000 -19004.7798 2781.2370 0.0000 0.0000 2227.9179 -13987.7765 236.5023 -16215.6944 -13983.1364 240.5032 264.4124 324.0542 46065.1645 3.0174 2.8547
ENERGY: 265000 0.8835 4.9851 0.1899 0.0000 -18869.4515 2630.3596 0.0000 0.0000 2241.0495 -13991.9840 237.8963 -16233.0335 -13984.8824 241.4124 -715.2918 -624.5472 46454.0387 0.7441 0.2847
ENERGY: 275000 0.8289 4.9787 1.5875 0.0000 -19100.8389 2883.7337 0.0000 0.0000 2292.5585 -13917.1518 243.3642 -16209.7103 -13910.9680 241.1794 526.8087 607.8974 46729.1922 4.9969 5.7354
TCL: Running 50000 steps at 270 kelvin.
TCL: Setting parameter langevinTemp to 270
TCL: Running for 50000 steps
ETITLE: TS BOND ANGLE DIHED IMPRP ELECT VDW BOUNDARY MISC KINETIC TOTAL TEMP POTENTIAL TOTAL3 TEMPAVG PRESSURE GPRESSURE VOLUME PRESSAVG GPRESSAVG
ENERGY: 275000 0.8289 4.9787 1.5875 0.0000 -19100.8389 2883.7337 0.0000 0.0000 2291.4740 -13918.2363 243.2491 -16209.7103 -13915.0062 243.2491 524.9850 608.7909 46729.1922 524.9850 608.7909
ENERGY: 285000 0.7526 6.7977 0.2651 0.0000 -18057.9697 2525.6995 0.0000 0.0000 2491.2248 -13033.2300 264.4534 -15524.4548 -13028.2463 268.5401 -81.6587 14.7647 47750.4750 5.5112 5.9776
ENERGY: 295000 1.3349 5.6696 0.1946 0.0000 -17943.8495 2420.8694 0.0000 0.0000 2502.3306 -13013.4506 265.6323 -15515.7811 -13008.7704 268.6427 -326.8805 -308.7019 47526.6610 3.0144 2.6443
ENERGY: 305000 1.2320 4.9804 0.9849 0.0000 -18028.1740 2459.9455 0.0000 0.0000 2623.6941 -12937.3372 278.5155 -15561.0313 -12932.4985 271.4864 -477.5676 -388.0787 47927.3362 3.4427 2.6606
ENERGY: 315000 2.2247 6.1431 0.2481 0.0000 -17935.6689 2399.8335 0.0000 0.0000 2486.8064 -13040.4132 263.9844 -15527.2196 -13035.1131 269.1026 -522.4512 -474.5388 47494.3370 1.4092 1.2219
ENERGY: 325000 1.3210 4.3416 0.8395 0.0000 -18110.2564 2508.3716 0.0000 0.0000 2587.9723 -13007.4103 274.7235 -15595.3827 -13002.3253 268.8074 36.4026 103.7542 47098.7624 -0.5394 -0.6224
TCL: Running 1000000 steps at 300 kelvin.
TCL: Setting parameter langevinTemp to 300
TCL: Running for 1000000 steps
ETITLE: TS BOND ANGLE DIHED IMPRP ELECT VDW BOUNDARY MISC KINETIC TOTAL TEMP POTENTIAL TOTAL3 TEMPAVG PRESSURE GPRESSURE VOLUME PRESSAVG GPRESSAVG
ENERGY: 325000 1.3210 4.3416 0.8395 0.0000 -18110.2564 2508.3716 0.0000 0.0000 2586.6913 -13008.6914 274.5875 -15595.3827 -13004.4771 274.5875 25.6590 104.3001 47098.7624 25.6590 104.3001
ENERGY: 525000 3.0106 5.3118 1.0013 0.0000 -17294.8400 2360.5656 0.0000 0.0000 2834.2849 -12090.6657 300.8706 -14924.9506 -12083.8401 299.7290 227.1974 329.5506 48217.0413 7.9598 8.0418
ENERGY: 725000 0.9645 7.4288 0.2442 0.0000 -17198.3710 2338.4276 0.0000 0.0000 2871.4400 -11979.8659 304.8148 -14851.3059 -11976.0567 301.1146 227.1582 317.3509 48707.8206 5.4207 5.3621
ENERGY: 925000 2.8149 4.1138 0.5672 0.0000 -17363.3888 2416.6660 0.0000 0.0000 2820.9671 -12118.2598 299.4569 -14939.2269 -12115.0497 299.7506 239.0412 335.9718 48807.6407 3.2282 3.1427
ENERGY: 1125000 0.7355 3.9447 0.9060 0.0000 -17167.0223 2263.3126 0.0000 0.0000 2867.4925 -12030.6310 304.3957 -14898.1235 -12024.8399 298.8576 -194.8277 -97.4388 48492.4133 1.5334 1.4555
ENERGY: 1325000 0.7981 8.9889 0.1792 0.0000 -16977.1949 2131.9079 0.0000 0.0000 2811.4471 -12023.8737 298.4463 -14835.3208 -12016.5503 300.1708 -903.4689 -821.5081 49236.3623 1.9039 1.9828
TCL: Exiting due to exit command.
