Info: SIMULATION PARAMETERS:
Info: TIMESTEP               2
Info: NUMBER OF STEPS        0
Info: STEPS PER CYCLE        10
Info: PERIODIC CELL BASIS 1  38.861 0 0
Info: PERIODIC CELL BASIS 2  0 39.115 0
Info: PERIODIC CELL BASIS 3  0 0 37.195
Info: PERIODIC CELL CENTER   0 0 0
Info: WRAPPING WATERS AROUND PERIODIC BOUNDARIES ON OUTPUT.
Info: WRAPPING ALL CLUSTERS AROUND PERIODIC BOUNDARIES ON OUTPUT.
Info: FIRST LDB TIMESTEP     50
Info: LAST LDB TIMESTEP     -1
Info: HOM BACKGROUND SCALING 1
Info: PME BACKGROUND SCALING 1
Info: MIN ATOMS PER PATCH    40
Info: EMPTY PATCH LOAD       40 ATOMS
Info: INITIAL TEMPERATURE    300
Info: CENTER OF MASS MOVING INITIALLY? NO
Info: DIELECTRIC             1
Info: EXCLUDE                SCALED ONE-FOUR
Info: 1-4 ELECTROSTATICS SCALED BY 0.833333
Info: MODIFIED 1-4 VDW PARAMETERS WILL BE USED
Info: DCD FILENAME           mobley_6091882_min.dcd
Info: DCD FREQUENCY          5000
Info: DCD FIRST STEP         5000
Info: DCD FILE WILL CONTAIN UNIT CELL DATA
Info: XST FILENAME           mobley_6091882_min.xst
Info: XST FREQUENCY          5000
Info: NO VELOCITY DCD OUTPUT
Info: NO FORCE DCD OUTPUT
Info: OUTPUT FILENAME        mobley_6091882_min
Info: BINARY OUTPUT FILES WILL BE USED
Info: RESTART FILENAME       mobley_6091882_min.restart
Info: RESTART FREQUENCY      5000
Info: BINARY RESTART FILES WILL BE USED
Info: CUTOFF                 9
Info: PAIRLIST DISTANCE      11
Info: PAIRLIST SHRINK RATE   0.01
Info: PAIRLIST GROW RATE     0.01
Info: PAIRLIST TRIGGER       0.3
Info: PAIRLISTS PER CYCLE    2
Info: PAIRLISTS ENABLED
Info: MARGIN                 8
Info: HYDROGEN GROUP CUTOFF  2.5
Info: PATCH DIMENSION        21.5
Info: ENERGY OUTPUT STEPS    5000
Info: ENERGY EVALUATION STEPS    5000
Info: OUTPUT ENERGY PRECISION 4
Info: CROSSTERM ENERGY INCLUDED IN DIHEDRAL
Info: TIMING OUTPUT STEPS    50000
Info: PRESSURE OUTPUT STEPS  5000
Info: LANGEVIN DYNAMICS ACTIVE
Info: LANGEVIN TEMPERATURE   300
Info: LANGEVIN USING BBK INTEGRATOR
Info: LANGEVIN DAMPING COEFFICIENT IS 1 INVERSE PS
Info: LANGEVIN DYNAMICS APPLIED TO HYDROGENS
Info: LANGEVIN PISTON PRESSURE CONTROL ACTIVE
Info:        TARGET PRESSURE IS 1.01325 BAR
Info:     OSCILLATION PERIOD IS 50 FS
Info:             DECAY TIME IS 25 FS
Info:     PISTON TEMPERATURE IS 300 K
Info:       PRESSURE CONTROL IS GROUP-BASED
Info:    INITIAL STRAIN RATE IS 0 0 0
Info:       CELL FLUCTUATION IS ISOTROPIC
Info: PARTICLE MESH EWALD (PME) ACTIVE
Info: PME TOLERANCE               1e-06
Info: PME EWALD COEFFICIENT       0.348832
Info: PME INTERPOLATION ORDER     4
Info: PME GRID DIMENSIONS         40 40 40
Info: PME MAXIMUM GRID SPACING    1
Info: FULL ELECTROSTATIC EVALUATION FREQUENCY      2
Info: USING VERLET I (r-RESPA) MTS SCHEME.
Info: C1 SPLITTING OF LONG RANGE ELECTROSTATICS
Info: PLACING ATOMS IN PATCHES BY HYDROGEN GROUPS
Info: RIGID BONDS TO HYDROGEN : ALL
Info:         ERROR TOLERANCE : 1e-08
Info:          MAX ITERATIONS : 100
Info: RIGID WATER USING SETTLE ALGORITHM
Info: RANDOM NUMBER SEED     1741349769
Info: USE HYDROGEN BONDS?    NO
Info: Using AMBER format force field!
Info: AMBER PARM FILE        mobley_6091882.prmtop
Info: COORDINATE PDB         mobley_6091882.pdb
Info: Exclusions will be read from PARM file!
Info: SCNB (VDW SCALING)     2
Info: USING ARITHMETIC MEAN TO COMBINE L-J SIGMA PARAMETERS
Info: SUMMARY OF PARAMETERS:
Info: 4 BONDS
Info: 2 ANGLES
Info:   2 HARMONIC
Info:   0 COSINE-BASED
Info: 1 DIHEDRAL
Info: 0 IMPROPER
Info: 0 CROSSTERM
Info: 0 VDW
Info: 10 VDW_PAIRS
Info: 0 NBTHOLE_PAIRS
Info: STRUCTURE SUMMARY:
Info: 3990 ATOMS
Info: 3989 BONDS
Info: 6 ANGLES
Info: 4 DIHEDRALS
Info: 0 IMPROPERS
Info: 0 CROSSTERMS
Info: 3999 EXCLUSIONS
Info: 3988 RIGID BONDS
Info: 7982 DEGREES OF FREEDOM
Info: 1330 HYDROGEN GROUPS
Info: 3 ATOMS IN LARGEST HYDROGEN GROUP
Info: 1330 MIGRATION GROUPS
Info: 3 ATOMS IN LARGEST MIGRATION GROUP
Info: TOTAL MASS = 23953.3 amu
Info: TOTAL CHARGE = 0.000100002 e
Info: MASS DENSITY = 0.70353 g/cm^3
Info: ATOM DENSITY = 0.0705718 atoms/A^3
Info: ADDED 0 IMPLICIT EXCLUSIONS
Info: NONBONDED TABLE R-SQUARED SPACING: 0.0625
Info: NONBONDED TABLE SIZE: 705 POINTS
Info: REMOVING COM VELOCITY -0.142717 -0.0740956 -0.00260915
TCL: Minimizing for 2000 steps
ETITLE: TS BOND ANGLE DIHED IMPRP ELECT VDW BOUNDARY MISC KINETIC TOTAL TEMP POTENTIAL TOTAL3 TEMPAVG PRESSURE GPRESSURE VOLUME PRESSAVG GPRESSAVG
ENERGY: 0 0.0078 0.0767 0.0000 0.0000 -12086.8403 1333.7098 0.0000 0.0000 0.0000 -10753.0459 0.0000 -10753.0459 -10753.0459 0.0000 10338.2250 -15186.1449 56538.1859 10338.2250 -15186.1449
ENERGY: 400 0.0015 0.9623 0.8147 0.0000 -17027.2100 2677.2680 0.0000 0.0000 0.0000 -14348.1636 0.0000 -14348.1636 -14348.1636 0.0000 16668.7507 16799.4937 56538.1859 16668.7507 16799.4937
ENERGY: 800 0.7179 0.2296 0.0660 0.0000 -17800.6310 3003.8908 0.0000 0.0000 0.0000 -14795.7267 0.0000 -14795.7267 -14795.7267 0.0000 18572.2717 18650.7877 56538.1859 18572.2717 18650.7877
ENERGY: 1200 0.2165 0.2018 0.0263 0.0000 -18066.4331 3095.5229 0.0000 0.0000 0.0000 -14970.4656 0.0000 -14970.4656 -14970.4656 0.0000 19133.1123 19228.9919 56538.1859 19133.1123 19228.9919
ENERGY: 1600 0.0107 0.4167 0.2028 0.0000 -18260.1796 3188.5095 0.0000 0.0000 0.0000 -15071.0399 0.0000 -15071.0399 -15071.0399 0.0000 19746.1238 19840.3876 56538.1859 19746.1238 19840.3876
ENERGY: 2000 0.0518 0.0630 0.0187 0.0000 -18332.0359 3212.6095 0.0000 0.0000 0.0000 -15119.2929 0.0000 -15119.2929 -15119.2929 0.0000 19901.2412 19990.9392 56538.1859 19901.2412 19990.9392
TCL: Exiting due to exit command.
Info: NAMD 3.0.1 for Linux-x86_64-multicore
Info: Please visit http://www.ks.uiuc.edu/Research/namd/
Info: for updates, documentation, and support information.
Info: Please cite Phillips et al., J. Chem. Phys. 153:044130 (2020) doi:10.1063/5.0014475
Info: in all publications reporting results obtained with NAMD.
Info: Based on Charm++/Converse 80000 for multicore-linux-x86_64-gcc
Info: Built Mon Oct 14 11:11:06 CDT 2024 by dhardy on athine.ks.uiuc.edu
Info: 1 NAMD  3.0.1  Linux-x86_64-multicore  16    k064  z5358697
Info: Running on 16 processors, 1 nodes, 1 physical nodes.
Info: CPU topology information available.
Info: Charm++/Converse parallel runtime startup completed at 0.00961017 s
Info: 1043.46 MB of memory in use based on /proc/self/stat
Info: Configuration file is mobley_6091882_equil.namd
Info: Working in the current directory /srv/scratch/z5358697/prod_prep_7/6091882
TCL: Running 25000 steps at 30 kelvin.
TCL: Suspending until startup complete.
Info: SIMULATION PARAMETERS:
Info: TIMESTEP               2
Info: NUMBER OF STEPS        0
Info: STEPS PER CYCLE        10
Info: PERIODIC CELL BASIS 1  38.861 0 0
Info: PERIODIC CELL BASIS 2  0 39.115 0
Info: PERIODIC CELL BASIS 3  0 0 37.195
Info: PERIODIC CELL CENTER   0 0 0
Info: WRAPPING WATERS AROUND PERIODIC BOUNDARIES ON OUTPUT.
Info: WRAPPING ALL CLUSTERS AROUND PERIODIC BOUNDARIES ON OUTPUT.
Info: FIRST LDB TIMESTEP     50
Info: LAST LDB TIMESTEP     -1
Info: HOM BACKGROUND SCALING 1
Info: PME BACKGROUND SCALING 1
Info: MIN ATOMS PER PATCH    40
Info: EMPTY PATCH LOAD       40 ATOMS
Info: INITIAL TEMPERATURE    300
Info: CENTER OF MASS MOVING INITIALLY? NO
Info: DIELECTRIC             1
Info: EXCLUDE                SCALED ONE-FOUR
Info: 1-4 ELECTROSTATICS SCALED BY 0.833333
Info: MODIFIED 1-4 VDW PARAMETERS WILL BE USED
Info: DCD FILENAME           mobley_6091882_equil.dcd
Info: DCD FREQUENCY          5000
Info: DCD FIRST STEP         5000
Info: DCD FILE WILL CONTAIN UNIT CELL DATA
Info: XST FILENAME           mobley_6091882_equil.xst
Info: XST FREQUENCY          5000
Info: NO VELOCITY DCD OUTPUT
Info: NO FORCE DCD OUTPUT
Info: OUTPUT FILENAME        mobley_6091882_equil
Info: BINARY OUTPUT FILES WILL BE USED
Info: RESTART FILENAME       mobley_6091882_equil.restart
Info: RESTART FREQUENCY      5000
Info: BINARY RESTART FILES WILL BE USED
Info: CUTOFF                 9
Info: PAIRLIST DISTANCE      11
Info: PAIRLIST SHRINK RATE   0.01
Info: PAIRLIST GROW RATE     0.01
Info: PAIRLIST TRIGGER       0.3
Info: PAIRLISTS PER CYCLE    2
Info: PAIRLISTS ENABLED
Info: MARGIN                 8
Info: HYDROGEN GROUP CUTOFF  2.5
Info: PATCH DIMENSION        21.5
Info: ENERGY OUTPUT STEPS    5000
Info: ENERGY EVALUATION STEPS    5000
Info: OUTPUT ENERGY PRECISION 4
Info: CROSSTERM ENERGY INCLUDED IN DIHEDRAL
Info: TIMING OUTPUT STEPS    50000
Info: PRESSURE OUTPUT STEPS  5000
Info: LANGEVIN DYNAMICS ACTIVE
Info: LANGEVIN TEMPERATURE   30
Info: LANGEVIN USING BBK INTEGRATOR
Info: LANGEVIN DAMPING COEFFICIENT IS 1 INVERSE PS
Info: LANGEVIN DYNAMICS APPLIED TO HYDROGENS
Info: LANGEVIN PISTON PRESSURE CONTROL ACTIVE
Info:        TARGET PRESSURE IS 1.01325 BAR
Info:     OSCILLATION PERIOD IS 50 FS
Info:             DECAY TIME IS 25 FS
Info:     PISTON TEMPERATURE IS 300 K
Info:       PRESSURE CONTROL IS GROUP-BASED
Info:    INITIAL STRAIN RATE IS 0 0 0
Info:       CELL FLUCTUATION IS ISOTROPIC
Info: PARTICLE MESH EWALD (PME) ACTIVE
Info: PME TOLERANCE               1e-06
Info: PME EWALD COEFFICIENT       0.348832
Info: PME INTERPOLATION ORDER     4
Info: PME GRID DIMENSIONS         40 40 40
Info: PME MAXIMUM GRID SPACING    1
Info: FULL ELECTROSTATIC EVALUATION FREQUENCY      2
Info: USING VERLET I (r-RESPA) MTS SCHEME.
Info: C1 SPLITTING OF LONG RANGE ELECTROSTATICS
Info: PLACING ATOMS IN PATCHES BY HYDROGEN GROUPS
Info: RIGID BONDS TO HYDROGEN : ALL
Info:         ERROR TOLERANCE : 1e-08
Info:          MAX ITERATIONS : 100
Info: RIGID WATER USING SETTLE ALGORITHM
Info: RANDOM NUMBER SEED     1741349785
Info: USE HYDROGEN BONDS?    NO
Info: Using AMBER format force field!
Info: AMBER PARM FILE        mobley_6091882.prmtop
Info: COORDINATE PDB         mobley_6091882.pdb
Info: Exclusions will be read from PARM file!
Info: SCNB (VDW SCALING)     2
Info: USING ARITHMETIC MEAN TO COMBINE L-J SIGMA PARAMETERS
Info: BINARY COORDINATES     mobley_6091882_min.coor
Info: SUMMARY OF PARAMETERS:
Info: 4 BONDS
Info: 2 ANGLES
Info:   2 HARMONIC
Info:   0 COSINE-BASED
Info: 1 DIHEDRAL
Info: 0 IMPROPER
Info: 0 CROSSTERM
Info: 0 VDW
Info: 10 VDW_PAIRS
Info: 0 NBTHOLE_PAIRS
Info: STRUCTURE SUMMARY:
Info: 3990 ATOMS
Info: 3989 BONDS
Info: 6 ANGLES
Info: 4 DIHEDRALS
Info: 0 IMPROPERS
Info: 0 CROSSTERMS
Info: 3999 EXCLUSIONS
Info: 3988 RIGID BONDS
Info: 7982 DEGREES OF FREEDOM
Info: 1330 HYDROGEN GROUPS
Info: 3 ATOMS IN LARGEST HYDROGEN GROUP
Info: 1330 MIGRATION GROUPS
Info: 3 ATOMS IN LARGEST MIGRATION GROUP
Info: TOTAL MASS = 23953.3 amu
Info: TOTAL CHARGE = 0.000100002 e
Info: MASS DENSITY = 0.70353 g/cm^3
Info: ATOM DENSITY = 0.0705718 atoms/A^3
Info: ADDED 0 IMPLICIT EXCLUSIONS
Info: NONBONDED TABLE R-SQUARED SPACING: 0.0625
Info: NONBONDED TABLE SIZE: 705 POINTS
Info: REMOVING COM VELOCITY 0.0218907 0.0493741 -0.0658567
TCL: Running for 25000 steps
ETITLE: TS BOND ANGLE DIHED IMPRP ELECT VDW BOUNDARY MISC KINETIC TOTAL TEMP POTENTIAL TOTAL3 TEMPAVG PRESSURE GPRESSURE VOLUME PRESSAVG GPRESSAVG
ENERGY: 0 0.0518 0.0630 0.0187 0.0000 -18332.0359 3212.6095 0.0000 0.0000 2374.7211 -12744.5719 299.4272 -15119.2929 -12744.1506 299.4272 520.7543 556.6068 56538.1859 520.7543 556.6068
ENERGY: 5000 0.0020 0.2255 0.0663 0.0000 -19175.5360 3376.9051 0.0000 0.0000 241.8566 -15556.4805 30.4956 -15798.3371 -15555.9100 48.0265 462.2936 535.8041 38712.7280 -1.1896 -1.2857
ENERGY: 10000 0.0337 0.2815 0.1746 0.0000 -19162.6002 3331.8871 0.0000 0.0000 233.4927 -15596.7306 29.4410 -15830.2233 -15596.3132 30.2603 33.9907 120.9377 38930.3738 5.0086 4.8687
ENERGY: 15000 0.1874 0.3073 0.1973 0.0000 -18986.8353 3154.2721 0.0000 0.0000 237.0090 -15594.8621 29.8843 -15831.8712 -15594.2751 30.2711 -1153.2175 -1076.0661 39237.1777 4.9214 5.2471
ENERGY: 20000 0.0001 0.1507 0.3794 0.0000 -19284.0816 3440.9759 0.0000 0.0000 239.7219 -15602.8536 30.2264 -15842.5755 -15602.2115 30.0698 739.8163 799.6777 38600.3859 7.2159 7.0339
ENERGY: 25000 0.0096 0.3931 0.4560 0.0000 -19177.2105 3320.3922 0.0000 0.0000 242.0706 -15613.8890 30.5225 -15855.9596 -15613.1119 30.0957 -148.0294 -62.4291 38814.9767 3.2184 3.4842
TCL: Running 25000 steps at 60 kelvin.
TCL: Setting parameter langevinTemp to 60
TCL: Running for 25000 steps
ETITLE: TS BOND ANGLE DIHED IMPRP ELECT VDW BOUNDARY MISC KINETIC TOTAL TEMP POTENTIAL TOTAL3 TEMPAVG PRESSURE GPRESSURE VOLUME PRESSAVG GPRESSAVG
ENERGY: 25000 0.0096 0.3931 0.4560 0.0000 -19177.2105 3320.3922 0.0000 0.0000 241.9541 -15614.0054 30.5079 -15855.9596 -15613.4638 30.5079 -126.3575 -62.4015 38814.9767 -126.3575 -62.4015
ENERGY: 30000 0.0124 0.6704 0.1581 0.0000 -18822.8926 3161.7882 0.0000 0.0000 483.3736 -15176.8899 60.9483 -15660.2635 -15175.5956 57.2286 -560.1991 -480.8499 39067.6224 2.3165 2.1995
ENERGY: 35000 0.0029 0.6105 0.0108 0.0000 -18886.8483 3194.3335 0.0000 0.0000 475.8278 -15216.0628 59.9969 -15691.8907 -15214.5822 60.0394 -461.3063 -374.6179 38974.1565 6.0768 5.8191
ENERGY: 40000 0.4006 0.1112 0.2337 0.0000 -18741.3422 3035.4949 0.0000 0.0000 477.6963 -15227.4054 60.2324 -15705.1017 -15225.9825 60.3042 -1523.8473 -1462.2117 39396.7440 3.0059 2.7857
ENERGY: 45000 0.0189 0.4168 0.1336 0.0000 -18912.0384 3183.4167 0.0000 0.0000 484.4430 -15243.6094 61.0831 -15728.0524 -15242.3972 60.2299 -693.3759 -619.1691 39190.6704 0.7801 1.0460
ENERGY: 50000 0.0437 0.4555 0.0385 0.0000 -19040.8339 3297.8753 0.0000 0.0000 475.9761 -15266.4448 60.0156 -15742.4208 -15265.3990 60.1380 40.8460 123.1592 38931.6982 4.2222 4.0396
TCL: Running 25000 steps at 90 kelvin.
TCL: Setting parameter langevinTemp to 90
TCL: Running for 25000 steps
ETITLE: TS BOND ANGLE DIHED IMPRP ELECT VDW BOUNDARY MISC KINETIC TOTAL TEMP POTENTIAL TOTAL3 TEMPAVG PRESSURE GPRESSURE VOLUME PRESSAVG GPRESSAVG
ENERGY: 50000 0.0437 0.4555 0.0385 0.0000 -19040.8339 3297.8753 0.0000 0.0000 475.7411 -15266.6798 59.9859 -15742.4208 -15265.6537 59.9859 58.5681 122.9503 38931.6982 58.5681 122.9503
ENERGY: 55000 0.0060 0.3182 0.5710 0.0000 -18671.4672 3179.5105 0.0000 0.0000 715.5580 -14775.5035 90.2243 -15491.0615 -14773.4441 87.2983 -52.3534 44.3402 39248.2534 -1.7059 -1.4031
ENERGY: 60000 0.4284 0.1071 0.8200 0.0000 -18743.0483 3209.2233 0.0000 0.0000 718.6645 -14813.8051 90.6160 -15532.4695 -14812.1670 89.9160 95.3165 167.5973 39017.5341 1.6362 1.8542
ENERGY: 65000 0.1560 0.3252 0.0476 0.0000 -18657.9195 3089.2618 0.0000 0.0000 713.4081 -14854.7208 89.9532 -15568.1289 -14852.9658 90.4212 -581.8233 -536.9704 38974.4851 0.9353 1.0857
ENERGY: 70000 0.3531 0.3009 0.3860 0.0000 -18856.3011 3279.2331 0.0000 0.0000 715.5278 -14860.5002 90.2205 -15576.0280 -14858.7694 90.3648 513.3769 542.2461 38698.6575 3.5880 3.8155
ENERGY: 75000 0.0042 0.4548 0.4892 0.0000 -18770.6131 3192.5308 0.0000 0.0000 705.1724 -14871.9616 88.9148 -15577.1340 -14870.4822 90.3178 -133.4095 -49.7524 38887.5892 -2.1970 -2.1763
TCL: Running 25000 steps at 120 kelvin.
TCL: Setting parameter langevinTemp to 120
TCL: Running for 25000 steps
ETITLE: TS BOND ANGLE DIHED IMPRP ELECT VDW BOUNDARY MISC KINETIC TOTAL TEMP POTENTIAL TOTAL3 TEMPAVG PRESSURE GPRESSURE VOLUME PRESSAVG GPRESSAVG
ENERGY: 75000 0.0042 0.4548 0.4892 0.0000 -18770.6131 3192.5308 0.0000 0.0000 704.8109 -14872.3231 88.8692 -15577.1340 -14870.8327 88.8692 -110.2812 -50.3463 38887.5892 -110.2812 -50.3463
ENERGY: 80000 0.2161 0.9064 0.1464 0.0000 -18432.3951 3100.7942 0.0000 0.0000 957.8236 -14372.5084 120.7714 -15330.3320 -14369.5509 117.3668 65.9036 121.3911 39083.0312 10.0218 9.5264
ENERGY: 85000 0.0525 0.3796 0.3616 0.0000 -18454.4738 3110.2589 0.0000 0.0000 960.5465 -14382.8747 121.1148 -15343.4212 -14379.4247 119.8934 -27.9333 43.4762 39226.9734 -1.7529 -1.9536
ENERGY: 90000 0.0001 0.2799 0.7675 0.0000 -18457.3536 3073.4624 0.0000 0.0000 958.6367 -14424.2071 120.8739 -15382.8438 -14422.2563 120.1165 -382.6370 -305.4222 39170.7950 1.3399 1.7653
ENERGY: 95000 0.0246 0.3889 0.6885 0.0000 -18557.7975 3150.9626 0.0000 0.0000 956.1063 -14449.6266 120.5549 -15405.7329 -14446.5806 120.8069 219.8952 241.6890 38853.4692 -2.3966 -2.2998
ENERGY: 100000 0.5010 0.6180 0.1234 0.0000 -18537.1225 3122.2846 0.0000 0.0000 948.9681 -14464.6276 119.6548 -15413.5956 -14461.5783 120.1903 -44.3058 -27.9748 39039.0569 7.0211 7.2044
TCL: Running 25000 steps at 150 kelvin.
TCL: Setting parameter langevinTemp to 150
TCL: Running for 25000 steps
ETITLE: TS BOND ANGLE DIHED IMPRP ELECT VDW BOUNDARY MISC KINETIC TOTAL TEMP POTENTIAL TOTAL3 TEMPAVG PRESSURE GPRESSURE VOLUME PRESSAVG GPRESSAVG
ENERGY: 100000 0.5010 0.6180 0.1234 0.0000 -18537.1225 3122.2846 0.0000 0.0000 948.4815 -14465.1142 119.5935 -15413.5956 -14463.0471 119.5935 -83.0273 -27.6289 39039.0569 -83.0273 -27.6289
ENERGY: 105000 0.8854 0.3081 0.5828 0.0000 -18107.5177 3018.6679 0.0000 0.0000 1175.1071 -13911.9665 148.1686 -15087.0736 -13908.8635 146.5914 207.4385 291.6097 39116.3772 2.5072 2.0019
ENERGY: 110000 0.2188 1.1080 0.0685 0.0000 -18155.2605 3056.6699 0.0000 0.0000 1199.9355 -13897.2598 151.2992 -15097.1953 -13893.4746 149.3168 443.7004 503.1139 39041.8768 1.4696 1.8126
ENERGY: 115000 0.0618 0.4217 0.0997 0.0000 -18167.5189 2974.5298 0.0000 0.0000 1222.2911 -13970.1147 154.1180 -15192.4058 -13966.7694 150.8248 -435.3215 -327.1646 39220.1166 8.0314 7.6920
ENERGY: 120000 1.0358 0.5899 0.1863 0.0000 -18054.7741 2860.9108 0.0000 0.0000 1192.1396 -13999.9118 150.3162 -15192.0514 -13997.0794 150.1944 -1077.9737 -1011.3732 39413.7395 6.0926 6.0623
ENERGY: 125000 0.0126 0.4366 0.3313 0.0000 -18141.0257 2956.7005 0.0000 0.0000 1186.2033 -13997.3414 149.5677 -15183.5447 -13994.2906 151.0396 -450.3745 -421.9772 39366.2304 2.8943 2.9329
TCL: Running 50000 steps at 180 kelvin.
TCL: Setting parameter langevinTemp to 180
TCL: Running for 50000 steps
ETITLE: TS BOND ANGLE DIHED IMPRP ELECT VDW BOUNDARY MISC KINETIC TOTAL TEMP POTENTIAL TOTAL3 TEMPAVG PRESSURE GPRESSURE VOLUME PRESSAVG GPRESSAVG
ENERGY: 125000 0.0126 0.4366 0.3313 0.0000 -18141.0257 2956.7005 0.0000 0.0000 1185.6208 -13997.9239 149.4942 -15183.5447 -13995.9161 149.4942 -477.0352 -421.0119 39366.2304 -477.0352 -421.0119
ENERGY: 135000 1.3908 0.1854 0.4148 0.0000 -17714.7165 2867.3693 0.0000 0.0000 1418.0364 -13427.3198 178.7994 -14845.3562 -13423.5247 180.4252 -53.5595 -17.9327 39103.6041 8.2087 8.6441
ENERGY: 145000 0.1114 1.0904 0.1323 0.0000 -17520.0269 2735.5170 0.0000 0.0000 1441.6466 -13341.5292 181.7764 -14783.1758 -13337.7892 180.0452 -637.0080 -577.9651 39033.7205 3.8373 3.2128
ENERGY: 155000 0.2640 0.7273 0.3789 0.0000 -17546.1548 2744.8856 0.0000 0.0000 1411.4555 -13388.4435 177.9696 -14799.8990 -13385.7796 179.4838 -507.5625 -446.0588 39033.6388 5.3557 5.0677
ENERGY: 165000 0.2550 1.3116 0.4296 0.0000 -17713.8969 2857.5926 0.0000 0.0000 1417.5344 -13436.7737 178.7361 -14854.3081 -13433.8826 180.9761 88.8914 151.2489 38779.1961 4.7471 4.7499
ENERGY: 175000 0.0192 0.3463 0.3087 0.0000 -17612.5874 2783.9122 0.0000 0.0000 1449.6948 -13378.3062 182.7912 -14828.0010 -13374.7994 180.3536 -228.6001 -223.7517 38780.9158 0.5658 1.3644
TCL: Running 50000 steps at 210 kelvin.
TCL: Setting parameter langevinTemp to 210
TCL: Running for 50000 steps
ETITLE: TS BOND ANGLE DIHED IMPRP ELECT VDW BOUNDARY MISC KINETIC TOTAL TEMP POTENTIAL TOTAL3 TEMPAVG PRESSURE GPRESSURE VOLUME PRESSAVG GPRESSAVG
ENERGY: 175000 0.0192 0.3463 0.3087 0.0000 -17612.5874 2783.9122 0.0000 0.0000 1448.9909 -13379.0101 182.7024 -14828.0010 -13375.7163 182.7024 -282.6041 -223.4411 38780.9158 -282.6041 -223.4411
ENERGY: 185000 0.1724 0.5870 0.8643 0.0000 -17029.2636 2664.1134 0.0000 0.0000 1675.7696 -12687.7569 211.2968 -14363.5265 -12682.3187 210.0183 215.5843 259.1312 38886.8882 1.1224 1.0090
ENERGY: 195000 0.0057 0.1593 0.2842 0.0000 -16951.2079 2667.5180 0.0000 0.0000 1672.9710 -12610.2697 210.9440 -14283.2407 -12605.3937 209.9081 525.5937 612.3071 38757.1629 -2.0778 -1.9147
ENERGY: 205000 0.2434 1.1640 0.6354 0.0000 -16846.9162 2541.3466 0.0000 0.0000 1679.0327 -12624.4941 211.7083 -14303.5268 -12621.7921 209.0569 -428.5696 -383.1492 39258.4139 6.5643 7.0145
ENERGY: 215000 0.0240 0.3799 0.4453 0.0000 -16781.5238 2555.8624 0.0000 0.0000 1653.4006 -12571.4117 208.4763 -14224.8123 -12566.7684 210.0461 4.6160 80.2974 38643.8953 4.4495 4.4375
ENERGY: 225000 0.0012 0.5179 0.6956 0.0000 -16922.8338 2636.8774 0.0000 0.0000 1621.6729 -12663.0688 204.4758 -14284.7418 -12659.6390 209.5382 340.4668 429.4464 38611.4948 0.8206 0.7097
TCL: Running 50000 steps at 240 kelvin.
TCL: Setting parameter langevinTemp to 240
TCL: Running for 50000 steps
ETITLE: TS BOND ANGLE DIHED IMPRP ELECT VDW BOUNDARY MISC KINETIC TOTAL TEMP POTENTIAL TOTAL3 TEMPAVG PRESSURE GPRESSURE VOLUME PRESSAVG GPRESSAVG
ENERGY: 225000 0.0012 0.5179 0.6956 0.0000 -16922.8338 2636.8774 0.0000 0.0000 1620.8173 -12663.9245 204.3679 -14284.7418 -12661.3705 204.3679 356.3334 430.9512 38611.4948 356.3334 430.9512
ENERGY: 235000 0.0132 1.1180 1.1182 0.0000 -15931.6955 2323.5403 0.0000 0.0000 1928.8849 -11677.0209 243.2120 -13605.9058 -11675.3049 241.3957 47.3505 157.9098 39369.8923 1.6065 1.5640
ENERGY: 245000 0.3620 0.6216 1.5734 0.0000 -15849.5303 2239.8627 0.0000 0.0000 1944.9758 -11662.1349 245.2409 -13607.1107 -11659.1642 240.6616 -478.3358 -338.2652 39454.3450 0.3665 0.7626
ENERGY: 255000 0.0002 1.6094 2.4034 0.0000 -15858.6141 2329.7847 0.0000 0.0000 1919.0977 -11605.7187 241.9779 -13524.8164 -11604.7368 241.3211 158.4119 276.6417 39513.7083 0.2993 0.3307
ENERGY: 265000 0.0123 0.3022 0.0810 0.0000 -16011.6237 2351.1716 0.0000 0.0000 1935.4874 -11724.5692 244.0445 -13660.0566 -11718.7205 241.6210 -19.6084 78.9096 39500.9639 5.9353 5.9209
ENERGY: 275000 0.0004 1.1786 1.9449 0.0000 -15888.4667 2305.1517 0.0000 0.0000 1928.9734 -11651.2178 243.2231 -13580.1911 -11647.6417 240.2354 70.9169 147.3124 39246.3972 1.3491 1.0944
TCL: Running 50000 steps at 270 kelvin.
TCL: Setting parameter langevinTemp to 270
TCL: Running for 50000 steps
ETITLE: TS BOND ANGLE DIHED IMPRP ELECT VDW BOUNDARY MISC KINETIC TOTAL TEMP POTENTIAL TOTAL3 TEMPAVG PRESSURE GPRESSURE VOLUME PRESSAVG GPRESSAVG
ENERGY: 275000 0.0004 1.1786 1.9449 0.0000 -15888.4667 2305.1517 0.0000 0.0000 1928.0190 -11652.1721 243.1028 -13580.1911 -11649.0836 243.1028 63.7772 148.4994 39246.3972 63.7772 148.4994
ENERGY: 285000 0.7322 1.2674 0.7021 0.0000 -15242.0056 2062.3230 0.0000 0.0000 2091.6938 -11085.2872 263.7405 -13176.9809 -11081.1932 268.8048 -685.9916 -614.6927 40193.5485 -0.0028 -0.3722
ENERGY: 295000 0.5596 1.1042 0.3239 0.0000 -15046.5299 2001.7277 0.0000 0.0000 2139.6717 -10903.1429 269.7900 -13042.8146 -10898.0126 271.1135 -688.2317 -604.7275 40139.4314 0.0076 -0.8794
ENERGY: 305000 0.2332 1.1009 0.2409 0.0000 -15031.5335 2020.6266 0.0000 0.0000 2082.1896 -10927.1422 262.5421 -13009.3318 -10921.3617 274.1462 -764.8628 -673.0921 40709.5494 3.6820 3.8665
ENERGY: 315000 0.0396 2.3131 0.0472 0.0000 -15193.2693 2100.1860 0.0000 0.0000 2168.8743 -10921.8092 273.4721 -13090.6835 -10916.7006 268.7728 -355.7237 -269.8139 40532.1019 0.8173 0.7921
ENERGY: 325000 0.3538 1.0389 3.1235 0.0000 -15252.6300 2164.5359 0.0000 0.0000 2129.5491 -10954.0289 268.5136 -13083.5780 -10949.0483 268.7857 39.5029 87.8462 40303.0913 1.1226 1.3156
TCL: Running 1000000 steps at 300 kelvin.
TCL: Setting parameter langevinTemp to 300
TCL: Running for 1000000 steps
ETITLE: TS BOND ANGLE DIHED IMPRP ELECT VDW BOUNDARY MISC KINETIC TOTAL TEMP POTENTIAL TOTAL3 TEMPAVG PRESSURE GPRESSURE VOLUME PRESSAVG GPRESSAVG
ENERGY: 325000 0.3538 1.0389 3.1235 0.0000 -15252.6300 2164.5359 0.0000 0.0000 2128.5105 -10955.0675 268.3827 -13083.5780 -10951.7033 268.3827 6.8364 88.1999 40303.0913 6.8364 88.1999
ENERGY: 525000 0.0022 0.8900 0.6747 0.0000 -14498.9363 1926.3379 0.0000 0.0000 2341.3127 -10229.7188 295.2148 -12571.0316 -10225.3142 299.8904 -308.1464 -206.4470 41008.0907 9.6855 9.2963
ENERGY: 725000 0.4452 0.1592 0.8593 0.0000 -14411.4033 1868.3512 0.0000 0.0000 2406.4112 -10135.1771 303.4230 -12541.5884 -10129.2987 299.4389 -403.2481 -261.1416 40838.1792 2.5004 2.5164
ENERGY: 925000 0.0030 0.3717 0.9875 0.0000 -14595.3318 2080.7708 0.0000 0.0000 2390.8182 -10122.3806 301.4569 -12513.1988 -10118.0036 300.4034 915.7915 1004.7585 40902.1927 1.7099 2.0270
ENERGY: 1125000 0.2980 0.4448 0.8240 0.0000 -14452.5474 1943.8726 0.0000 0.0000 2387.5165 -10119.5914 301.0406 -12507.1080 -10114.7083 301.8497 4.9222 118.6548 40882.8471 5.8147 5.5545
ENERGY: 1325000 0.4821 0.9005 0.8416 0.0000 -14512.7217 1879.4038 0.0000 0.0000 2411.9621 -10219.1315 304.1229 -12631.0936 -10215.0049 299.2938 -475.6368 -346.5369 40572.3828 5.4012 4.9177
TCL: Exiting due to exit command.
