Info: SIMULATION PARAMETERS:
Info: TIMESTEP               2
Info: NUMBER OF STEPS        0
Info: STEPS PER CYCLE        10
Info: PERIODIC CELL BASIS 1  30.5463 0 0
Info: PERIODIC CELL BASIS 2  0 32.0108 0
Info: PERIODIC CELL BASIS 3  0 0 32.3251
Info: PERIODIC CELL CENTER   0 0 0
Info: WRAPPING WATERS AROUND PERIODIC BOUNDARIES ON OUTPUT.
Info: WRAPPING ALL CLUSTERS AROUND PERIODIC BOUNDARIES ON OUTPUT.
Info: FIRST LDB TIMESTEP     50
Info: LAST LDB TIMESTEP     -1
Info: HOM BACKGROUND SCALING 1
Info: PME BACKGROUND SCALING 1
Info: MIN ATOMS PER PATCH    40
Info: EMPTY PATCH LOAD       40 ATOMS
Info: VELOCITY FILE          mobley_6239320_equil.vel
Info: CENTER OF MASS MOVING INITIALLY? NO
Info: DIELECTRIC             1
Info: EXCLUDE                SCALED ONE-FOUR
Info: 1-4 ELECTROSTATICS SCALED BY 0.833333
Info: MODIFIED 1-4 VDW PARAMETERS WILL BE USED
Info: DCD FILENAME           mobley_6239320_prod.dcd
Info: DCD FREQUENCY          100000
Info: DCD FIRST STEP         100000
Info: DCD FILE WILL CONTAIN UNIT CELL DATA
Info: XST FILENAME           mobley_6239320_prod.xst
Info: XST FREQUENCY          100000
Info: NO VELOCITY DCD OUTPUT
Info: NO FORCE DCD OUTPUT
Info: OUTPUT FILENAME        mobley_6239320_prod
Info: BINARY OUTPUT FILES WILL BE USED
Info: RESTART FILENAME       mobley_6239320_prod.restart
Info: RESTART FREQUENCY      100000
Info: BINARY RESTART FILES WILL BE USED
Info: CUTOFF                 9
Info: PAIRLIST DISTANCE      11
Info: PAIRLIST SHRINK RATE   0.01
Info: PAIRLIST GROW RATE     0.01
Info: PAIRLIST TRIGGER       0.3
Info: PAIRLISTS PER CYCLE    2
Info: PAIRLISTS ENABLED
Info: MARGIN                 2
Info: HYDROGEN GROUP CUTOFF  2.5
Info: PATCH DIMENSION        15.5
Info: ENERGY OUTPUT STEPS    100000
Info: ENERGY EVALUATION STEPS    100000
Info: OUTPUT ENERGY PRECISION 4
Info: CROSSTERM ENERGY INCLUDED IN DIHEDRAL
Info: TIMING OUTPUT STEPS    1000000
Info: PRESSURE OUTPUT STEPS  100000
Info: ALCHEMICAL FEP ON
Info: FEP CURRENT LAMBDA VALUE     0
Info: FEP COMPARISON LAMBDA VALUE  0.05
Info: FEP INTRA-ALCHEMICAL NON-BONDED INTERACTIONS WILL BE RETAINED
Info: FEP INTRA-ALCHEMICAL BONDED INTERACTIONS WILL BE RETAINED
Info: FEP VDW SHIFTING COEFFICIENT 5
Info: FEP ELEC. ACTIVE FOR ANNIHILATED PARTICLES BETWEEN LAMBDA = 0 AND LAMBDA = 0.5
Info: FEP ELEC. ACTIVE FOR EXNIHILATED PARTICLES BETWEEN LAMBDA = 0.5 AND LAMBDA = 1
Info: FEP VDW ACTIVE FOR ANNIHILATED PARTICLES BETWEEN LAMBDA = 0 AND LAMBDA = 1
Info: FEP VDW ACTIVE FOR EXNIHILATED PARTICLES BETWEEN LAMBDA = 0 AND LAMBDA = 1
Info: FEP BOND ACTIVE FOR ANNIHILATED PARTICLES BETWEEN LAMBDA = 1 AND LAMBDA = 1
Info: FEP BOND ACTIVE FOR EXNIHILATED PARTICLES BETWEEN LAMBDA = 0 AND LAMBDA = 0
Info: LANGEVIN DYNAMICS ACTIVE
Info: LANGEVIN TEMPERATURE   300
Info: LANGEVIN USING BBK INTEGRATOR
Info: LANGEVIN DAMPING COEFFICIENT IS 1 INVERSE PS
Info: LANGEVIN DYNAMICS APPLIED TO HYDROGENS
Info: LANGEVIN PISTON PRESSURE CONTROL ACTIVE
Info:        TARGET PRESSURE IS 1.01325 BAR
Info:     OSCILLATION PERIOD IS 50 FS
Info:             DECAY TIME IS 25 FS
Info:     PISTON TEMPERATURE IS 300 K
Info:       PRESSURE CONTROL IS GROUP-BASED
Info:    INITIAL STRAIN RATE IS 0.000523116 0.000523116 0.000523116
Info:       CELL FLUCTUATION IS ISOTROPIC
Info: PARTICLE MESH EWALD (PME) ACTIVE
Info: PME TOLERANCE               1e-06
Info: PME EWALD COEFFICIENT       0.348832
Info: PME INTERPOLATION ORDER     4
Info: PME GRID DIMENSIONS         32 36 36
Info: PME MAXIMUM GRID SPACING    1
Info: PME CALCULATION WILL BE PERFORMED ON GPU
Info: FULL ELECTROSTATIC EVALUATION FREQUENCY      2
Info: USING VERLET I (r-RESPA) MTS SCHEME.
Info: C1 SPLITTING OF LONG RANGE ELECTROSTATICS
Info: PLACING ATOMS IN PATCHES BY HYDROGEN GROUPS
Info: RIGID BONDS TO HYDROGEN : ALL
Info:         ERROR TOLERANCE : 1e-08
Info:          MAX ITERATIONS : 100
Info: RIGID WATER USING SETTLE ALGORITHM
Info: RANDOM NUMBER SEED     1742242235
Info: USE HYDROGEN BONDS?    NO
Info: Using AMBER format force field!
Info: AMBER PARM FILE        mobley_6239320.prmtop
Info: COORDINATE PDB         mobley_6239320.pdb
Info: Exclusions will be read from PARM file!
Info: SCNB (VDW SCALING)     2
Info: USING ARITHMETIC MEAN TO COMBINE L-J SIGMA PARAMETERS
Info: BINARY COORDINATES     mobley_6239320_equil.coor
Info: SUMMARY OF PARAMETERS:
Info: 5 BONDS
Info: 4 ANGLES
Info:   4 HARMONIC
Info:   0 COSINE-BASED
Info: 4 DIHEDRAL
Info: 0 IMPROPER
Info: 0 CROSSTERM
Info: 0 VDW
Info: 21 VDW_PAIRS
Info: 0 NBTHOLE_PAIRS
Info: To read alchdata from file: mobley_6239320.pdb
Info: To read alchflag data from column: 5
Info: STRUCTURE SUMMARY:
Info: 2997 ATOMS
Info: 2997 BONDS
Info: 18 ANGLES
Info: 36 DIHEDRALS
Info: 0 IMPROPERS
Info: 0 CROSSTERMS
Info: 3036 EXCLUSIONS
Info: 2988 RIGID BONDS
Info: ALCH: 0 ATOMS TO DISAPPEAR IN FINAL STATE
Info: ALCH: 12 ATOMS TO APPEAR IN FINAL STATE
Info: 6003 DEGREES OF FREEDOM
Info: 1004 HYDROGEN GROUPS
Info: 3 ATOMS IN LARGEST HYDROGEN GROUP
Info: 1004 MIGRATION GROUPS
Info: 3 ATOMS IN LARGEST MIGRATION GROUP
Info: TOTAL MASS = 18055 amu
Info: TOTAL CHARGE = 0.000199944 e
Info: MASS DENSITY = 0.948554 g/cm^3
Info: ATOM DENSITY = 0.0948183 atoms/A^3
Info: ADDED 0 IMPLICIT EXCLUSIONS
Info: NONBONDED TABLE R-SQUARED SPACING: 0.0625
Info: NONBONDED TABLE SIZE: 705 POINTS
Info: REMOVING COM VELOCITY -0.173067 0.052873 0.0637366
Info: Use 3D box decompostion in PME FFT.
Info: Updated CUDA force table with 4096 elements.
Info: Updated CUDA LJ table with 6 x 6 elements.
Info: Found 14 unique exclusion lists needing 24 bytes
TCL: Running for 1500000 steps
ETITLE: TS BOND ANGLE DIHED IMPRP ELECT VDW BOUNDARY MISC KINETIC TOTAL TEMP POTENTIAL TOTALAVG TEMPAVG PRESSURE GPRESSURE VOLUME PRESSAVG GPRESSAVG
ENERGY: 0 6.7897 2.0572 29.0443 0.0000 -11121.8522 1384.3365 0.0000 0.0000 1794.8183 -7904.8062 300.9141 -9699.6246 -7904.8062 300.9141 -910.7315 -827.6601 31607.8236 -910.7315 -827.6601
ENERGY: 300000 8.7580 3.2445 25.8650 0.0000 -11152.5678 1378.4526 0.0000 0.0000 1787.1456 -7949.1020 299.6277 -9736.2477 -7963.7066 300.4082 -548.0674 -526.3782 30729.7248 -296.4564 -213.3306
ENERGY: 600000 7.9961 2.8690 28.8517 0.0000 -11209.2768 1397.9999 0.0000 0.0000 1791.4208 -7980.1393 300.3445 -9771.5601 -7981.9080 299.3099 -554.6208 -479.1791 30836.1977 -363.6787 -274.8890
ENERGY: 900000 9.3387 4.7365 28.5283 0.0000 -11251.8367 1400.9456 0.0000 0.0000 1794.4411 -8013.8464 300.8509 -9808.2875 -7974.0447 300.0865 -419.8775 -320.1713 30541.1568 -265.8967 -194.6379
ENERGY: 1200000 5.3614 2.4140 24.7991 0.0000 -11342.8677 1516.1280 0.0000 0.0000 1790.3678 -8003.7974 300.1679 -9794.1652 -7984.0993 298.8696 306.2189 359.3762 30617.7981 -169.9688 -101.6757
ENERGY: 1500000 10.1437 6.6850 26.2541 0.0000 -11266.5454 1486.9254 0.0000 0.0000 1791.3595 -7945.1777 300.3342 -9736.5372 -7985.1654 298.5257 77.2251 124.2562 30826.7331 -101.7873 -33.7127
TCL: Running FEP window   2: Lambda1 0.05   Lambda2 0.1    [dLambda 0.05  ]
TCL: Setting parameter firsttimestep to 0
TCL: Setting parameter alchLambda to 0.05
Info: NONBONDED TABLE R-SQUARED SPACING: 0.0625
Info: NONBONDED TABLE SIZE: 705 POINTS
TCL: Setting parameter alchLambda2 to 0.1
Info: NONBONDED TABLE R-SQUARED SPACING: 0.0625
Info: NONBONDED TABLE SIZE: 705 POINTS
TCL: Running for 1500000 steps
ETITLE: TS BOND ANGLE DIHED IMPRP ELECT VDW BOUNDARY MISC KINETIC TOTAL TEMP POTENTIAL TOTALAVG TEMPAVG PRESSURE GPRESSURE VOLUME PRESSAVG GPRESSAVG
ENERGY: 0 10.1437 6.6850 26.2541 0.0000 -11266.5439 1488.4523 0.0000 0.0000 1790.4529 -7944.5559 300.1822 -9735.0088 -7944.5559 300.1822 36.7939 127.2671 30826.7331 36.7939 127.2671
ENERGY: 300000 7.7601 1.8366 28.4513 0.0000 -11316.7264 1487.3300 0.0000 0.0000 1782.0422 -8009.3062 298.7721 -9791.3484 -7994.9682 297.7664 24.1216 151.0934 30676.5587 -8.9308 87.5677
ENERGY: 600000 4.8356 1.9039 26.8705 0.0000 -11255.2544 1426.0151 0.0000 0.0000 1808.4725 -7987.1568 303.2033 -9795.6293 -7994.7329 300.1512 -202.1563 -104.7092 30386.8772 -106.4939 -10.7022
ENERGY: 900000 17.9215 3.1764 25.7062 0.0000 -11373.4149 1561.7882 0.0000 0.0000 1766.5667 -7998.2560 296.1775 -9764.8226 -8004.7561 299.8125 737.3790 822.4565 30844.5265 -50.7388 34.2947
ENERGY: 1200000 9.4367 2.9597 26.8555 0.0000 -11183.5318 1384.5144 0.0000 0.0000 1813.4186 -7946.3469 304.0326 -9759.7656 -8000.5241 299.9957 -349.1701 -298.8630 30618.0231 -10.4462 65.8303
ENERGY: 1500000 7.7211 1.5801 31.6314 0.0000 -11224.1981 1429.5498 0.0000 0.0000 1810.1864 -7943.5292 303.4907 -9753.7156 -7989.9164 300.1636 -529.9679 -464.6750 31290.0323 -58.6354 16.0571
TCL: Running FEP window   3: Lambda1 0.1    Lambda2 0.15000000000000002 [dLambda 0.05000000000000002]
TCL: Setting parameter firsttimestep to 0
TCL: Setting parameter alchLambda to 0.1
Info: NONBONDED TABLE R-SQUARED SPACING: 0.0625
Info: NONBONDED TABLE SIZE: 705 POINTS
TCL: Setting parameter alchLambda2 to 0.15000000000000002
Info: NONBONDED TABLE R-SQUARED SPACING: 0.0625
Info: NONBONDED TABLE SIZE: 705 POINTS
TCL: Running for 1500000 steps
ETITLE: TS BOND ANGLE DIHED IMPRP ELECT VDW BOUNDARY MISC KINETIC TOTAL TEMP POTENTIAL TOTALAVG TEMPAVG PRESSURE GPRESSURE VOLUME PRESSAVG GPRESSAVG
ENERGY: 0 7.7211 1.5801 31.6314 0.0000 -11224.1987 1429.8231 0.0000 0.0000 1809.3252 -7944.1177 303.3463 -9753.4429 -7944.1177 303.3463 -549.1612 -463.4190 31290.0323 -549.1612 -463.4190
ENERGY: 300000 2.9034 2.4331 27.2998 0.0000 -11268.2682 1486.5797 0.0000 0.0000 1800.0711 -7948.9812 301.7948 -9749.0522 -7979.6924 300.2090 96.8436 187.6934 30721.2540 -118.9490 -61.9524
ENERGY: 600000 7.5201 1.7356 29.5543 0.0000 -11378.8109 1524.9653 0.0000 0.0000 1836.2312 -7978.8044 307.8573 -9815.0356 -7984.8151 300.6451 522.4685 543.9920 30387.2694 -226.2197 -172.3182
ENERGY: 900000 4.0480 5.5188 28.3127 0.0000 -11386.8887 1579.5308 0.0000 0.0000 1766.4150 -8003.0636 296.1521 -9769.4785 -7983.5749 299.6875 1059.1127 1026.0963 30305.9592 -132.5594 -79.0995
ENERGY: 1200000 5.0211 2.1054 26.7121 0.0000 -11265.7482 1440.9227 0.0000 0.0000 1827.3601 -7963.6267 306.3700 -9790.9868 -7986.7367 300.1542 -240.0887 -197.7777 30563.3619 -134.7328 -86.4253
ENERGY: 1500000 5.3950 5.9366 25.7553 0.0000 -11210.2160 1469.9927 0.0000 0.0000 1775.1227 -7928.0137 297.6120 -9703.1364 -7990.2177 299.9163 201.3670 191.9307 30431.6400 -119.7654 -72.7700
TCL: Running FEP window   4: Lambda1 0.15000000000000002 Lambda2 0.2    [dLambda 0.04999999999999999]
TCL: Setting parameter firsttimestep to 0
TCL: Setting parameter alchLambda to 0.15000000000000002
Info: NONBONDED TABLE R-SQUARED SPACING: 0.0625
Info: NONBONDED TABLE SIZE: 705 POINTS
TCL: Setting parameter alchLambda2 to 0.2
Info: NONBONDED TABLE R-SQUARED SPACING: 0.0625
Info: NONBONDED TABLE SIZE: 705 POINTS
TCL: Running for 1500000 steps
ETITLE: TS BOND ANGLE DIHED IMPRP ELECT VDW BOUNDARY MISC KINETIC TOTAL TEMP POTENTIAL TOTALAVG TEMPAVG PRESSURE GPRESSURE VOLUME PRESSAVG GPRESSAVG
ENERGY: 0 5.3950 5.9366 25.7553 0.0000 -11210.2165 1470.2390 0.0000 0.0000 1774.2222 -7928.6684 297.4610 -9702.8907 -7928.6684 297.4610 115.6415 196.9076 30431.6400 115.6415 196.9076
ENERGY: 300000 9.3517 5.7627 25.7965 0.0000 -11385.5352 1515.2449 0.0000 0.0000 1809.2874 -8020.0921 303.3399 -9829.3795 -8029.2250 299.4114 500.5093 601.8672 30327.4779 207.1092 271.6704
ENERGY: 600000 8.2321 3.6404 25.9165 0.0000 -11291.1376 1503.7387 0.0000 0.0000 1791.7314 -7957.8784 300.3966 -9749.6098 -8031.9674 299.3532 688.5552 773.5236 30322.6997 102.2999 164.8097
ENERGY: 900000 7.1643 2.3159 26.7082 0.0000 -11345.5196 1484.9171 0.0000 0.0000 1836.3424 -7988.0717 307.8759 -9824.4141 -8006.6666 301.0335 -186.5039 -63.7253 30984.4083 59.1997 125.3373
ENERGY: 1200000 7.6882 1.4913 25.4338 0.0000 -11176.4552 1420.3603 0.0000 0.0000 1797.2080 -7924.2738 301.3147 -9721.4817 -8009.8760 301.0625 -87.4387 -72.5135 30464.1359 50.0846 108.1676
ENERGY: 1500000 3.9516 2.5613 29.1560 0.0000 -11256.3713 1461.9074 0.0000 0.0000 1828.5865 -7930.2084 306.5756 -9758.7950 -8007.7772 301.3494 108.5415 194.5358 30612.2028 57.3932 117.1431
TCL: Running FEP window   5: Lambda1 0.2    Lambda2 0.25   [dLambda 0.04999999999999999]
TCL: Setting parameter firsttimestep to 0
TCL: Setting parameter alchLambda to 0.2
Info: NONBONDED TABLE R-SQUARED SPACING: 0.0625
Info: NONBONDED TABLE SIZE: 705 POINTS
TCL: Setting parameter alchLambda2 to 0.25
Info: NONBONDED TABLE R-SQUARED SPACING: 0.0625
Info: NONBONDED TABLE SIZE: 705 POINTS
TCL: Running for 1500000 steps
ETITLE: TS BOND ANGLE DIHED IMPRP ELECT VDW BOUNDARY MISC KINETIC TOTAL TEMP POTENTIAL TOTALAVG TEMPAVG PRESSURE GPRESSURE VOLUME PRESSAVG GPRESSAVG
ENERGY: 0 3.9516 2.5613 29.1560 0.0000 -11256.3717 1461.8528 0.0000 0.0000 1827.6983 -7931.1518 306.4267 -9758.8500 -7931.1518 306.4267 118.4793 200.1538 30612.2028 118.4793 200.1538
ENERGY: 300000 10.5193 2.9452 26.2303 0.0000 -11184.8158 1420.2463 0.0000 0.0000 1784.3688 -7940.5058 299.1622 -9724.8747 -7936.3714 303.6117 -172.5805 -132.4988 30973.9086 43.7927 94.3008
ENERGY: 600000 6.7551 2.8046 26.4680 0.0000 -11374.3252 1544.4038 0.0000 0.0000 1801.0834 -7992.8103 301.9645 -9793.8936 -7968.5430 302.1390 520.1710 532.9038 30535.9366 44.5592 91.5095
ENERGY: 900000 4.2980 2.4027 29.6543 0.0000 -11340.0000 1494.0337 0.0000 0.0000 1770.1301 -8039.4811 296.7749 -9809.6113 -7978.9005 301.5690 -286.2200 -188.6700 31160.5718 114.8580 172.0796
ENERGY: 1200000 6.5722 5.0124 25.8330 0.0000 -11296.1118 1481.2848 0.0000 0.0000 1797.7892 -7979.6203 301.4122 -9777.4095 -7985.4031 301.1025 -86.4618 21.0677 31081.5911 79.6631 134.7289
ENERGY: 1500000 11.5349 1.5730 27.2147 0.0000 -11322.9434 1470.9570 0.0000 0.0000 1851.1215 -7960.5423 310.3537 -9811.6638 -7984.0434 301.3641 127.9690 194.0434 30514.4208 51.3481 116.2965
TCL: Running FEP window   6: Lambda1 0.25   Lambda2 0.3    [dLambda 0.04999999999999999]
TCL: Setting parameter firsttimestep to 0
TCL: Setting parameter alchLambda to 0.25
Info: NONBONDED TABLE R-SQUARED SPACING: 0.0625
Info: NONBONDED TABLE SIZE: 705 POINTS
TCL: Setting parameter alchLambda2 to 0.3
Info: NONBONDED TABLE R-SQUARED SPACING: 0.0625
Info: NONBONDED TABLE SIZE: 705 POINTS
TCL: Running for 1500000 steps
ETITLE: TS BOND ANGLE DIHED IMPRP ELECT VDW BOUNDARY MISC KINETIC TOTAL TEMP POTENTIAL TOTALAVG TEMPAVG PRESSURE GPRESSURE VOLUME PRESSAVG GPRESSAVG
ENERGY: 0 11.5349 1.5730 27.2147 0.0000 -11322.9440 1472.0200 0.0000 0.0000 1850.1970 -7960.4045 310.1987 -9810.6015 -7960.4045 310.1987 117.7327 203.8787 30514.4208 117.7327 203.8787
ENERGY: 300000 7.3349 3.1652 28.3578 0.0000 -11368.0658 1521.7295 0.0000 0.0000 1857.2837 -7950.1948 311.3869 -9807.4785 -7983.7611 304.6076 134.0309 205.8842 31317.5531 -137.2507 -61.9990
ENERGY: 600000 8.4694 2.6749 25.6095 0.0000 -11188.9043 1457.5319 0.0000 0.0000 1806.9096 -7887.7089 302.9413 -9694.6185 -7988.5511 302.5090 -116.9927 -25.6209 31529.6607 -10.7315 58.9080
ENERGY: 900000 12.5859 2.1068 27.0819 0.0000 -11429.0218 1604.1061 0.0000 0.0000 1751.0528 -8032.0883 293.5765 -9783.1412 -7990.6511 301.0212 1153.3099 1238.3747 30632.1913 257.5252 324.2230
ENERGY: 1200000 12.1319 4.9916 28.3937 0.0000 -11230.5122 1492.7502 0.0000 0.0000 1802.0123 -7890.2326 302.1202 -9692.2448 -7978.0405 301.4478 364.5987 452.2272 31297.9791 144.8564 212.1997
ENERGY: 1500000 3.5250 4.2711 30.8670 0.0000 -11351.4361 1478.5419 0.0000 0.0000 1795.0016 -8039.2296 300.9448 -9834.2312 -7977.5087 301.8661 -126.2692 -28.1658 30806.5778 22.1940 93.7679
TCL: Running FEP window   7: Lambda1 0.3    Lambda2 0.35   [dLambda 0.04999999999999999]
TCL: Setting parameter firsttimestep to 0
TCL: Setting parameter alchLambda to 0.3
Info: NONBONDED TABLE R-SQUARED SPACING: 0.0625
Info: NONBONDED TABLE SIZE: 705 POINTS
TCL: Setting parameter alchLambda2 to 0.35
Info: NONBONDED TABLE R-SQUARED SPACING: 0.0625
Info: NONBONDED TABLE SIZE: 705 POINTS
TCL: Running for 1500000 steps
ETITLE: TS BOND ANGLE DIHED IMPRP ELECT VDW BOUNDARY MISC KINETIC TOTAL TEMP POTENTIAL TOTALAVG TEMPAVG PRESSURE GPRESSURE VOLUME PRESSAVG GPRESSAVG
ENERGY: 0 3.5250 4.2711 30.8670 0.0000 -11351.4362 1478.3775 0.0000 0.0000 1794.1578 -8040.2379 300.8034 -9834.3957 -8040.2379 300.8034 -99.1989 -23.9459 30806.5778 -99.1989 -23.9459
ENERGY: 300000 4.9053 1.2212 26.2452 0.0000 -11259.8866 1450.5577 0.0000 0.0000 1783.6038 -7993.3535 299.0339 -9776.9573 -7997.9612 303.4755 -201.2443 -174.0256 30916.6653 -287.4067 -236.6407
ENERGY: 600000 5.6814 4.6574 26.1925 0.0000 -11297.2122 1488.4742 0.0000 0.0000 1787.7820 -7984.4247 299.7344 -9772.2067 -7994.1072 300.6453 399.4997 419.2941 30338.5710 -110.0514 -67.4440
ENERGY: 900000 5.2692 6.8292 27.4790 0.0000 -11293.5962 1514.2500 0.0000 0.0000 1813.3021 -7926.4668 304.0130 -9739.7689 -7964.3121 300.7499 494.8324 536.4306 30673.9454 -178.6671 -137.4158
ENERGY: 1200000 5.7832 1.8893 27.5275 0.0000 -11299.2570 1476.0926 0.0000 0.0000 1761.2614 -8026.7030 295.2880 -9787.9644 -7987.8133 299.1531 17.0294 157.8428 30794.2085 -196.5145 -150.1556
ENERGY: 1500000 6.9508 2.4265 25.2138 0.0000 -11240.4579 1400.8380 0.0000 0.0000 1820.7433 -7984.2855 305.2606 -9805.0288 -7998.1790 299.1057 -644.2972 -529.9526 30952.6756 -220.4342 -168.1535
TCL: Running FEP window   8: Lambda1 0.35   Lambda2 0.39999999999999997 [dLambda 0.04999999999999999]
TCL: Setting parameter firsttimestep to 0
TCL: Setting parameter alchLambda to 0.35
Info: NONBONDED TABLE R-SQUARED SPACING: 0.0625
Info: NONBONDED TABLE SIZE: 705 POINTS
TCL: Setting parameter alchLambda2 to 0.39999999999999997
Info: NONBONDED TABLE R-SQUARED SPACING: 0.0625
Info: NONBONDED TABLE SIZE: 705 POINTS
TCL: Running for 1500000 steps
ETITLE: TS BOND ANGLE DIHED IMPRP ELECT VDW BOUNDARY MISC KINETIC TOTAL TEMP POTENTIAL TOTALAVG TEMPAVG PRESSURE GPRESSURE VOLUME PRESSAVG GPRESSAVG
ENERGY: 0 6.9508 2.4265 25.2138 0.0000 -11240.4582 1401.1132 0.0000 0.0000 1819.9157 -7984.8382 305.1218 -9804.7538 -7984.8382 305.1218 -623.6508 -525.9081 30952.6756 -623.6508 -525.9081
ENERGY: 300000 6.8735 0.4896 25.3433 0.0000 -11278.7047 1459.1134 0.0000 0.0000 1814.3081 -7972.5768 304.1817 -9786.8849 -7977.5072 299.6042 -160.5083 -224.0011 31191.5973 -137.1262 -92.1400
ENERGY: 600000 7.7193 2.7622 27.2678 0.0000 -11301.3286 1452.4496 0.0000 0.0000 1781.5012 -8029.6284 298.6814 -9811.1296 -7992.3126 300.3092 -314.2391 -253.5321 30820.4934 -213.3204 -157.0800
ENERGY: 900000 7.8616 4.0000 27.0027 0.0000 -11285.5312 1492.1409 0.0000 0.0000 1809.7312 -7944.7947 303.4144 -9754.5260 -7992.3394 300.3138 184.0609 278.4519 30780.2471 -225.8083 -161.4742
ENERGY: 1200000 8.6711 4.9031 26.2478 0.0000 -11206.5974 1401.5620 0.0000 0.0000 1771.7575 -7993.4559 297.0478 -9765.2133 -7991.6934 299.9795 -661.7617 -647.0195 31376.3242 -239.8654 -175.7650
ENERGY: 1500000 7.4384 5.0224 27.1768 0.0000 -11168.9417 1370.8383 0.0000 0.0000 1768.8291 -7989.6367 296.5568 -9758.4658 -7991.5715 300.8501 -849.0082 -784.6565 31114.1281 -252.1876 -187.8651
TCL: Running FEP window   9: Lambda1 0.39999999999999997 Lambda2 0.44999999999999996 [dLambda 0.04999999999999999]
TCL: Setting parameter firsttimestep to 0
TCL: Setting parameter alchLambda to 0.39999999999999997
Info: NONBONDED TABLE R-SQUARED SPACING: 0.0625
Info: NONBONDED TABLE SIZE: 705 POINTS
TCL: Setting parameter alchLambda2 to 0.44999999999999996
Info: NONBONDED TABLE R-SQUARED SPACING: 0.0625
Info: NONBONDED TABLE SIZE: 705 POINTS
TCL: Running for 1500000 steps
ETITLE: TS BOND ANGLE DIHED IMPRP ELECT VDW BOUNDARY MISC KINETIC TOTAL TEMP POTENTIAL TOTALAVG TEMPAVG PRESSURE GPRESSURE VOLUME PRESSAVG GPRESSAVG
ENERGY: 0 7.4384 5.0224 27.1768 0.0000 -11168.9418 1371.2594 0.0000 0.0000 1767.9146 -7990.1302 296.4035 -9758.0448 -7990.1302 296.4035 -860.5892 -779.3990 31114.1281 -860.5892 -779.3990
ENERGY: 300000 7.7948 2.2436 27.2277 0.0000 -11268.7764 1449.5978 0.0000 0.0000 1854.0137 -7927.8987 310.8386 -9781.9124 -7964.1365 303.2723 -398.9507 -369.7784 31611.1565 -457.7142 -418.1021
ENERGY: 600000 4.9123 2.8833 27.1479 0.0000 -11187.0930 1449.5109 0.0000 0.0000 1815.9428 -7886.6958 304.4558 -9702.6386 -7966.6314 301.8339 -165.5007 -107.4288 31170.3871 -123.5199 -77.8260
ENERGY: 900000 10.4580 5.0709 27.6827 0.0000 -11361.4294 1538.4856 0.0000 0.0000 1718.5005 -8061.2317 288.1189 -9779.7321 -7979.1072 298.7100 446.7904 550.3013 30792.4786 -74.3340 -14.1500
ENERGY: 1200000 7.2399 2.3023 27.8203 0.0000 -11314.9042 1421.2844 0.0000 0.0000 1768.7811 -8087.4762 296.5488 -9856.2573 -7994.1853 298.6356 -284.7414 -222.4664 30264.3224 -131.1682 -74.1475
ENERGY: 1500000 5.1913 3.3528 27.2609 0.0000 -11265.3290 1510.5053 0.0000 0.0000 1785.7299 -7933.2888 299.3904 -9719.0187 -7985.2204 298.8040 259.8878 383.5721 31083.8242 -63.5314 -4.2245
TCL: Running FEP window  10: Lambda1 0.44999999999999996 Lambda2 0.49999999999999994 [dLambda 0.04999999999999999]
TCL: Setting parameter firsttimestep to 0
TCL: Setting parameter alchLambda to 0.44999999999999996
Info: NONBONDED TABLE R-SQUARED SPACING: 0.0625
Info: NONBONDED TABLE SIZE: 705 POINTS
TCL: Setting parameter alchLambda2 to 0.49999999999999994
Info: NONBONDED TABLE R-SQUARED SPACING: 0.0625
Info: NONBONDED TABLE SIZE: 705 POINTS
TCL: Running for 1500000 steps
ETITLE: TS BOND ANGLE DIHED IMPRP ELECT VDW BOUNDARY MISC KINETIC TOTAL TEMP POTENTIAL TOTALAVG TEMPAVG PRESSURE GPRESSURE VOLUME PRESSAVG GPRESSAVG
ENERGY: 0 5.1913 3.3528 27.2609 0.0000 -11265.3301 1510.2257 0.0000 0.0000 1784.8425 -7934.4568 299.2416 -9719.2993 -7934.4568 299.2416 291.6184 385.6869 31083.8242 291.6184 385.6869
ENERGY: 300000 3.1717 4.8795 27.3833 0.0000 -11243.0093 1482.0726 0.0000 0.0000 1819.5917 -7905.9104 305.0675 -9725.5021 -7940.1117 300.9745 254.6634 263.0255 30569.6747 -130.5620 -73.8430
ENERGY: 600000 8.9942 3.6709 25.7256 0.0000 -11277.4114 1410.6170 0.0000 0.0000 1810.5344 -8017.8692 303.5490 -9828.4036 -7950.7148 303.9905 -420.6709 -385.3553 30403.2353 -140.3319 -92.1035
ENERGY: 900000 10.5279 1.4248 26.0416 0.0000 -11309.4750 1538.0655 0.0000 0.0000 1792.9432 -7940.4720 300.5997 -9733.4152 -7940.0286 304.6611 924.5232 971.4851 30622.3997 -87.8496 -31.4261
ENERGY: 1200000 6.6140 2.0843 26.5875 0.0000 -11283.9597 1459.1582 0.0000 0.0000 1775.3509 -8014.1649 297.6502 -9789.5158 -7958.6296 302.8449 -162.5934 -125.4502 31001.0969 -177.6713 -122.0127
ENERGY: 1500000 6.9632 2.8858 27.4815 0.0000 -11364.8848 1436.3461 0.0000 0.0000 1762.5604 -8128.6478 295.5058 -9891.2082 -7969.7450 302.4468 -481.8032 -373.4165 30293.7433 -207.5423 -153.9159
TCL: Running FEP window  11: Lambda1 0.49999999999999994 Lambda2 0.5499999999999999 [dLambda 0.04999999999999999]
TCL: Setting parameter firsttimestep to 0
TCL: Setting parameter alchLambda to 0.49999999999999994
Info: NONBONDED TABLE R-SQUARED SPACING: 0.0625
Info: NONBONDED TABLE SIZE: 705 POINTS
TCL: Setting parameter alchLambda2 to 0.5499999999999999
Info: NONBONDED TABLE R-SQUARED SPACING: 0.0625
Info: NONBONDED TABLE SIZE: 705 POINTS
TCL: Running for 1500000 steps
ETITLE: TS BOND ANGLE DIHED IMPRP ELECT VDW BOUNDARY MISC KINETIC TOTAL TEMP POTENTIAL TOTALAVG TEMPAVG PRESSURE GPRESSURE VOLUME PRESSAVG GPRESSAVG
ENERGY: 0 6.9632 2.8858 27.4815 0.0000 -11364.8848 1436.0452 0.0000 0.0000 1761.6669 -8129.8422 295.3560 -9891.5091 -8129.8422 295.3560 -460.7028 -366.1049 30293.7433 -460.7028 -366.1049
ENERGY: 300000 11.4434 4.0500 25.0097 0.0000 -11356.3863 1466.9326 0.0000 0.0000 1855.5760 -7993.3747 311.1006 -9848.9507 -8016.8784 301.0974 -150.1680 -39.6617 30795.6701 -188.1387 -85.1774
ENERGY: 600000 5.1157 4.8708 26.7115 0.0000 -11361.0514 1525.4839 0.0000 0.0000 1740.9515 -8057.9180 291.8829 -9798.8695 -8046.8179 297.6270 289.9953 356.1903 30911.2177 -58.1144 29.3755
ENERGY: 900000 6.3698 2.4160 26.4821 0.0000 -11243.8289 1414.9178 0.0000 0.0000 1816.4268 -7977.2164 304.5369 -9793.6432 -8028.7531 298.0383 -509.1446 -468.3661 31034.0249 -30.9418 46.8999
ENERGY: 1200000 4.1940 1.8706 25.0787 0.0000 -11186.1985 1368.9376 0.0000 0.0000 1806.7921 -7979.3254 302.9216 -9786.1176 -8018.2123 298.2731 -1018.4153 -920.2038 31254.8818 -77.7367 4.8393
ENERGY: 1500000 6.6169 3.4842 30.0544 0.0000 -11376.6855 1561.7561 0.0000 0.0000 1749.4530 -8025.3209 293.3083 -9774.7739 -8019.4692 297.5139 555.9688 592.4485 30665.2709 -19.7708 58.7189
TCL: Running FEP window  12: Lambda1 0.5499999999999999 Lambda2 0.6    [dLambda 0.050000000000000044]
TCL: Setting parameter firsttimestep to 0
TCL: Setting parameter alchLambda to 0.5499999999999999
Info: NONBONDED TABLE R-SQUARED SPACING: 0.0625
Info: NONBONDED TABLE SIZE: 705 POINTS
TCL: Setting parameter alchLambda2 to 0.6
Info: NONBONDED TABLE R-SQUARED SPACING: 0.0625
Info: NONBONDED TABLE SIZE: 705 POINTS
TCL: Running for 1500000 steps
ETITLE: TS BOND ANGLE DIHED IMPRP ELECT VDW BOUNDARY MISC KINETIC TOTAL TEMP POTENTIAL TOTALAVG TEMPAVG PRESSURE GPRESSURE VOLUME PRESSAVG GPRESSAVG
ENERGY: 0 6.6169 3.4842 30.0544 0.0000 -11379.5070 1561.9460 0.0000 0.0000 1748.5765 -8028.8290 293.1613 -9777.4056 -8028.8290 293.1613 522.0692 594.5123 30665.2709 522.0692 594.5123
ENERGY: 300000 6.8514 3.8631 26.1718 0.0000 -11199.6225 1393.3958 0.0000 0.0000 1800.5455 -7968.7950 301.8743 -9769.3405 -7998.9641 296.1556 -646.1992 -549.8604 31287.7624 -226.1544 -171.7548
ENERGY: 600000 9.0401 2.3367 28.1068 0.0000 -11373.6767 1492.3821 0.0000 0.0000 1819.3888 -8022.4222 305.0335 -9841.8110 -7980.2178 299.8208 -55.0532 -23.0974 31113.5472 -243.5907 -188.7167
ENERGY: 900000 6.0858 5.3998 27.9613 0.0000 -11185.8245 1414.4248 0.0000 0.0000 1785.2430 -7946.7098 299.3087 -9731.9528 -7973.2427 300.7834 -499.1854 -426.8837 31070.7439 -329.9825 -268.1910
ENERGY: 1200000 7.5161 2.4824 30.6046 0.0000 -11271.8208 1466.2835 0.0000 0.0000 1809.0305 -7955.9038 303.2969 -9764.9343 -7974.1734 300.5263 -7.4166 103.0031 31079.3077 -266.7286 -198.1707
ENERGY: 1500000 8.4159 5.0229 26.5839 0.0000 -11183.6177 1401.0644 0.0000 0.0000 1801.6751 -7940.8555 302.0637 -9742.5306 -7962.0741 300.7577 -163.3807 -82.1510 30735.9591 -264.0043 -195.4143
TCL: Running FEP window  13: Lambda1 0.6    Lambda2 0.65   [dLambda 0.050000000000000044]
TCL: Setting parameter firsttimestep to 0
TCL: Setting parameter alchLambda to 0.6
Info: NONBONDED TABLE R-SQUARED SPACING: 0.0625
Info: NONBONDED TABLE SIZE: 705 POINTS
TCL: Setting parameter alchLambda2 to 0.65
Info: NONBONDED TABLE R-SQUARED SPACING: 0.0625
Info: NONBONDED TABLE SIZE: 705 POINTS
TCL: Running for 1500000 steps
ETITLE: TS BOND ANGLE DIHED IMPRP ELECT VDW BOUNDARY MISC KINETIC TOTAL TEMP POTENTIAL TOTALAVG TEMPAVG PRESSURE GPRESSURE VOLUME PRESSAVG GPRESSAVG
ENERGY: 0 8.4159 5.0229 26.5839 0.0000 -11183.7307 1400.5926 0.0000 0.0000 1800.7696 -7942.3457 301.9119 -9743.1154 -7942.3457 301.9119 -150.7579 -78.8960 30735.9591 -150.7579 -78.8960
ENERGY: 300000 3.2071 1.9064 27.6340 0.0000 -11334.2060 1502.6609 0.0000 0.0000 1838.3993 -7960.3983 308.2208 -9798.7977 -7955.0905 302.8267 16.6777 56.3598 30987.1147 -53.7854 2.2030
ENERGY: 600000 9.9118 7.5240 25.7936 0.0000 -11483.8269 1541.8848 0.0000 0.0000 1719.8640 -8178.8486 288.3475 -9898.7126 -7977.6314 300.7524 622.7556 602.4309 30223.2616 29.1453 77.0479
ENERGY: 900000 10.4574 2.2833 30.1364 0.0000 -11267.3708 1412.1013 0.0000 0.0000 1798.8868 -8013.5056 301.5962 -9812.3924 -7979.2933 300.6861 -571.4344 -573.1558 31213.7952 13.1164 64.9791
ENERGY: 1200000 10.2536 3.7394 26.9807 0.0000 -11439.3804 1552.7621 0.0000 0.0000 1776.7223 -8068.9222 297.8802 -9845.6445 -7984.0821 299.8703 753.0697 788.4443 30393.6752 20.2164 71.8264
ENERGY: 1500000 8.7182 3.8608 27.3152 0.0000 -11230.4396 1431.7271 0.0000 0.0000 1773.4708 -7985.3475 297.3350 -9758.8183 -7986.3316 300.1647 -242.0785 -230.1616 31087.3679 20.9397 72.8829
TCL: Running FEP window  14: Lambda1 0.65   Lambda2 0.7000000000000001 [dLambda 0.050000000000000044]
TCL: Setting parameter firsttimestep to 0
TCL: Setting parameter alchLambda to 0.65
Info: NONBONDED TABLE R-SQUARED SPACING: 0.0625
Info: NONBONDED TABLE SIZE: 705 POINTS
TCL: Setting parameter alchLambda2 to 0.7000000000000001
Info: NONBONDED TABLE R-SQUARED SPACING: 0.0625
Info: NONBONDED TABLE SIZE: 705 POINTS
TCL: Running for 1500000 steps
ETITLE: TS BOND ANGLE DIHED IMPRP ELECT VDW BOUNDARY MISC KINETIC TOTAL TEMP POTENTIAL TOTALAVG TEMPAVG PRESSURE GPRESSURE VOLUME PRESSAVG GPRESSAVG
ENERGY: 0 8.7182 3.8608 27.3152 0.0000 -11231.3597 1431.1452 0.0000 0.0000 1772.5983 -7987.7220 297.1888 -9760.3203 -7987.7220 297.1888 -314.6986 -232.8042 31087.3679 -314.6986 -232.8042
ENERGY: 300000 5.6282 2.2286 29.0060 0.0000 -11221.8163 1405.1563 0.0000 0.0000 1821.8543 -7957.9428 305.4469 -9779.7971 -7963.7610 301.9170 -455.0326 -417.5795 30923.3353 -363.3878 -315.3320
ENERGY: 600000 6.0051 1.6243 25.6493 0.0000 -11343.4652 1478.9188 0.0000 0.0000 1740.3330 -8090.9346 291.7792 -9831.2676 -7982.3753 299.3403 38.8065 73.0784 30707.4113 -118.5439 -76.3693
ENERGY: 900000 7.2480 3.0494 25.6144 0.0000 -11333.5993 1448.6879 0.0000 0.0000 1769.0021 -8079.9975 296.5858 -9848.9996 -7995.6288 299.5693 -382.9237 -311.9523 30924.2651 -110.6324 -56.9256
ENERGY: 1200000 7.4363 4.4566 26.0854 0.0000 -11289.7248 1461.3376 0.0000 0.0000 1741.1182 -8049.2907 291.9109 -9790.4089 -8009.5235 297.9948 -97.2439 -56.9136 30902.1182 -106.1065 -48.6669
ENERGY: 1500000 8.4301 2.4809 25.3030 0.0000 -11365.7503 1498.4700 0.0000 0.0000 1762.6644 -8068.4019 295.5233 -9831.0664 -8006.1186 298.4473 259.7685 373.2220 30345.9358 -109.1304 -51.5562
TCL: Running FEP window  15: Lambda1 0.7000000000000001 Lambda2 0.7500000000000001 [dLambda 0.050000000000000044]
TCL: Setting parameter firsttimestep to 0
TCL: Setting parameter alchLambda to 0.7000000000000001
Info: NONBONDED TABLE R-SQUARED SPACING: 0.0625
Info: NONBONDED TABLE SIZE: 705 POINTS
TCL: Setting parameter alchLambda2 to 0.7500000000000001
Info: NONBONDED TABLE R-SQUARED SPACING: 0.0625
Info: NONBONDED TABLE SIZE: 705 POINTS
TCL: Running for 1500000 steps
ETITLE: TS BOND ANGLE DIHED IMPRP ELECT VDW BOUNDARY MISC KINETIC TOTAL TEMP POTENTIAL TOTALAVG TEMPAVG PRESSURE GPRESSURE VOLUME PRESSAVG GPRESSAVG
ENERGY: 0 8.4301 2.4809 25.3030 0.0000 -11369.0260 1500.1492 0.0000 0.0000 1761.7888 -8070.8741 295.3765 -9832.6629 -8070.8741 295.3765 313.2065 388.0291 30345.9358 313.2065 388.0291
ENERGY: 300000 4.8773 1.9143 29.3851 0.0000 -11325.6317 1467.6011 0.0000 0.0000 1832.4302 -7989.4236 307.2200 -9821.8539 -7979.4107 303.1614 -124.5209 -75.1096 31088.8767 27.4710 105.8191
ENERGY: 600000 6.2453 2.2991 25.4830 0.0000 -11282.2973 1458.8196 0.0000 0.0000 1788.4959 -8000.9545 299.8541 -9789.4504 -7981.9274 301.0658 -28.2449 33.4406 30445.0688 68.8991 141.3410
ENERGY: 900000 7.1389 1.5532 25.7243 0.0000 -11289.7852 1400.9811 0.0000 0.0000 1745.5135 -8108.8743 292.6478 -9854.3877 -8004.9683 299.3920 -574.4964 -540.5163 30787.1434 64.7753 134.1213
ENERGY: 1200000 8.5629 1.6858 26.1151 0.0000 -11228.9842 1444.0983 0.0000 0.0000 1746.4745 -8002.0476 292.8089 -9748.5221 -8002.2379 300.2394 251.8616 423.6110 30216.2994 19.2804 93.5846
ENERGY: 1500000 11.7088 2.7980 27.5152 0.0000 -11197.9891 1431.5702 0.0000 0.0000 1805.0631 -7919.3338 302.6317 -9724.3969 -8001.2421 300.0698 57.4378 73.7590 30844.1983 27.3562 98.5696
TCL: Running FEP window  16: Lambda1 0.7500000000000001 Lambda2 0.8000000000000002 [dLambda 0.050000000000000044]
TCL: Setting parameter firsttimestep to 0
TCL: Setting parameter alchLambda to 0.7500000000000001
Info: NONBONDED TABLE R-SQUARED SPACING: 0.0625
Info: NONBONDED TABLE SIZE: 705 POINTS
TCL: Setting parameter alchLambda2 to 0.8000000000000002
Info: NONBONDED TABLE R-SQUARED SPACING: 0.0625
Info: NONBONDED TABLE SIZE: 705 POINTS
TCL: Running for 1500000 steps
ETITLE: TS BOND ANGLE DIHED IMPRP ELECT VDW BOUNDARY MISC KINETIC TOTAL TEMP POTENTIAL TOTALAVG TEMPAVG PRESSURE GPRESSURE VOLUME PRESSAVG GPRESSAVG
ENERGY: 0 11.7088 2.7980 27.5152 0.0000 -11201.1992 1432.3881 0.0000 0.0000 1804.1405 -7922.6486 302.4770 -9726.7891 -7922.6486 302.4770 11.8568 82.0547 30844.1983 11.8568 82.0547
ENERGY: 300000 5.1111 2.5576 25.6524 0.0000 -11342.4582 1470.9436 0.0000 0.0000 1777.5313 -8060.6621 298.0158 -9838.1934 -7969.4146 298.7203 -51.0817 17.2025 30384.1453 113.9170 175.7033
ENERGY: 600000 6.3752 4.1963 28.8683 0.0000 -11345.7151 1535.8263 0.0000 0.0000 1812.1040 -7958.3450 303.8122 -9770.4490 -7978.0926 299.5700 754.5308 802.8518 30362.7196 212.8874 271.2071
ENERGY: 900000 4.9699 3.8683 27.7699 0.0000 -11219.7726 1455.5229 0.0000 0.0000 1766.9936 -7960.6481 296.2491 -9727.6417 -7977.7484 300.1549 -134.0944 -44.3230 31062.4906 122.3347 173.2726
ENERGY: 1200000 6.9938 3.9020 27.3580 0.0000 -11247.5959 1500.9611 0.0000 0.0000 1741.1287 -7967.2524 291.9126 -9708.3810 -7975.0271 299.4369 710.7695 690.0684 30616.0025 104.2175 152.9699
ENERGY: 1500000 7.7641 3.0312 33.0323 0.0000 -11462.3815 1535.4099 0.0000 0.0000 1793.1328 -8090.0113 300.6315 -9883.1440 -7988.6496 299.4145 239.8412 301.1048 30960.0288 39.8822 96.5653
TCL: Running FEP window  17: Lambda1 0.8000000000000002 Lambda2 0.8500000000000002 [dLambda 0.050000000000000044]
TCL: Setting parameter firsttimestep to 0
TCL: Setting parameter alchLambda to 0.8000000000000002
Info: NONBONDED TABLE R-SQUARED SPACING: 0.0625
Info: NONBONDED TABLE SIZE: 705 POINTS
TCL: Setting parameter alchLambda2 to 0.8500000000000002
Info: NONBONDED TABLE R-SQUARED SPACING: 0.0625
Info: NONBONDED TABLE SIZE: 705 POINTS
TCL: Running for 1500000 steps
ETITLE: TS BOND ANGLE DIHED IMPRP ELECT VDW BOUNDARY MISC KINETIC TOTAL TEMP POTENTIAL TOTALAVG TEMPAVG PRESSURE GPRESSURE VOLUME PRESSAVG GPRESSAVG
ENERGY: 0 7.7641 3.0312 33.0323 0.0000 -11467.2631 1537.3434 0.0000 0.0000 1792.2412 -8093.8509 300.4820 -9886.0922 -8093.8509 300.4820 233.4756 318.3007 30960.0288 233.4756 318.3007
ENERGY: 300000 2.7052 4.5893 29.0932 0.0000 -11380.4125 1445.6295 0.0000 0.0000 1801.2565 -8097.1388 301.9935 -9898.3952 -8053.0922 297.5610 -569.8963 -563.5375 30978.3266 23.0451 60.1628
ENERGY: 600000 5.5422 4.6456 27.8627 0.0000 -11104.9618 1317.3411 0.0000 0.0000 1801.4075 -7948.1628 302.0188 -9749.5703 -8028.9290 298.7315 -1340.9465 -1287.5076 31319.7856 -105.8251 -64.3467
ENERGY: 900000 6.9912 4.0606 27.4492 0.0000 -11409.3327 1478.2236 0.0000 0.0000 1807.2318 -8085.3764 302.9953 -9892.6082 -8020.6156 299.2338 -303.3303 -223.8258 30897.0551 -111.2428 -66.7921
ENERGY: 1200000 12.5100 3.4372 31.7330 0.0000 -11228.6488 1395.6587 0.0000 0.0000 1828.3749 -7956.9350 306.5401 -9785.3100 -8003.6619 300.5686 -155.9384 -151.1240 30793.1699 -88.8124 -46.0397
ENERGY: 1500000 10.3174 1.8880 24.5813 0.0000 -11359.3789 1493.1596 0.0000 0.0000 1801.6796 -8027.7530 302.0644 -9829.4326 -8007.6459 300.2204 398.8102 421.3001 30593.9524 -44.7896 0.6369
TCL: Running FEP window  18: Lambda1 0.8500000000000002 Lambda2 0.9000000000000002 [dLambda 0.050000000000000044]
TCL: Setting parameter firsttimestep to 0
TCL: Setting parameter alchLambda to 0.8500000000000002
Info: NONBONDED TABLE R-SQUARED SPACING: 0.0625
Info: NONBONDED TABLE SIZE: 705 POINTS
TCL: Setting parameter alchLambda2 to 0.9000000000000002
Info: NONBONDED TABLE R-SQUARED SPACING: 0.0625
Info: NONBONDED TABLE SIZE: 705 POINTS
TCL: Running for 1500000 steps
ETITLE: TS BOND ANGLE DIHED IMPRP ELECT VDW BOUNDARY MISC KINETIC TOTAL TEMP POTENTIAL TOTALAVG TEMPAVG PRESSURE GPRESSURE VOLUME PRESSAVG GPRESSAVG
ENERGY: 0 10.3174 1.8880 24.5813 0.0000 -11365.2079 1496.7025 0.0000 0.0000 1800.8027 -8030.9160 301.9174 -9831.7187 -8030.9160 301.9174 383.0398 457.7521 30593.9524 383.0398 457.7521
ENERGY: 300000 8.6239 4.3173 26.1831 0.0000 -11233.7567 1393.8504 0.0000 0.0000 1781.3620 -8019.4199 298.6581 -9800.7819 -8009.1178 297.7875 -398.6198 -346.1426 30600.7792 205.6137 257.2751
ENERGY: 600000 3.4935 1.8615 27.6639 0.0000 -11268.4973 1454.0782 0.0000 0.0000 1751.5943 -8029.8060 293.6673 -9781.4002 -8007.4437 298.1537 -168.6745 -127.3977 30793.3760 -4.4033 58.4311
ENERGY: 900000 10.6671 2.8215 26.4869 0.0000 -11337.5188 1473.4648 0.0000 0.0000 1773.0955 -8050.9830 297.2721 -9824.0784 -8013.6959 298.8120 -136.6986 -81.3348 31151.8335 -64.9810 -5.1999
ENERGY: 1200000 2.8991 2.4392 26.3022 0.0000 -11281.2929 1451.7471 0.0000 0.0000 1758.9244 -8038.9809 294.8962 -9797.9053 -8023.3703 298.4354 -373.1270 -386.8588 31359.8197 -151.2814 -89.7275
ENERGY: 1500000 9.1912 5.0098 29.4750 0.0000 -11395.8509 1490.1982 0.0000 0.0000 1826.0571 -8035.9197 306.1515 -9861.9768 -8029.5247 298.8281 224.5378 252.5865 30741.4331 -114.1866 -59.8236
TCL: Running FEP window  19: Lambda1 0.9000000000000002 Lambda2 0.9500000000000003 [dLambda 0.050000000000000044]
TCL: Setting parameter firsttimestep to 0
TCL: Setting parameter alchLambda to 0.9000000000000002
Info: NONBONDED TABLE R-SQUARED SPACING: 0.0625
Info: NONBONDED TABLE SIZE: 705 POINTS
TCL: Setting parameter alchLambda2 to 0.9500000000000003
Info: NONBONDED TABLE R-SQUARED SPACING: 0.0625
Info: NONBONDED TABLE SIZE: 705 POINTS
TCL: Running for 1500000 steps
ETITLE: TS BOND ANGLE DIHED IMPRP ELECT VDW BOUNDARY MISC KINETIC TOTAL TEMP POTENTIAL TOTALAVG TEMPAVG PRESSURE GPRESSURE VOLUME PRESSAVG GPRESSAVG
ENERGY: 0 9.1912 5.0098 29.4751 0.0000 -11401.0895 1493.1058 0.0000 0.0000 1825.1561 -8039.1516 306.0004 -9864.3077 -8039.1516 306.0004 198.3250 283.0611 30741.4331 198.3250 283.0611
ENERGY: 300000 7.5682 3.3230 26.7783 0.0000 -11306.7801 1474.1474 0.0000 0.0000 1754.7670 -8040.1961 294.1992 -9794.9631 -8024.9459 296.1441 413.7426 474.2259 30263.8871 -84.8070 -16.5201
ENERGY: 600000 8.6002 1.7220 27.4225 0.0000 -11169.3190 1401.6002 0.0000 0.0000 1808.6899 -7921.2841 303.2398 -9729.9740 -8018.3063 297.7824 -277.7684 -218.6873 31044.2920 -27.8443 39.8223
ENERGY: 900000 9.4293 3.2852 26.6695 0.0000 -11286.5795 1428.4705 0.0000 0.0000 1778.8074 -8039.9176 298.2298 -9818.7251 -8002.7516 299.4926 -452.4940 -301.6505 30995.0344 -59.4182 19.2673
ENERGY: 1200000 6.6857 3.1026 28.0835 0.0000 -11246.3747 1450.9578 0.0000 0.0000 1823.4202 -7934.1250 305.7094 -9757.5452 -7995.6153 300.9925 -86.2141 2.1728 31095.2803 28.9207 105.4356
ENERGY: 1500000 7.9066 2.7249 25.4897 0.0000 -11212.4865 1441.4990 0.0000 0.0000 1744.7109 -7990.1556 292.5132 -9734.8664 -8003.0257 299.5213 -28.0240 47.2231 30979.4426 10.7529 85.5385
TCL: Running FEP window  20: Lambda1 0.9500000000000003 Lambda2 1.0    [dLambda 0.04999999999999971]
TCL: Setting parameter firsttimestep to 0
TCL: Setting parameter alchLambda to 0.9500000000000003
Info: NONBONDED TABLE R-SQUARED SPACING: 0.0625
Info: NONBONDED TABLE SIZE: 705 POINTS
TCL: Setting parameter alchLambda2 to 1.0
Info: NONBONDED TABLE R-SQUARED SPACING: 0.0625
Info: NONBONDED TABLE SIZE: 705 POINTS
TCL: Running for 1500000 steps
ETITLE: TS BOND ANGLE DIHED IMPRP ELECT VDW BOUNDARY MISC KINETIC TOTAL TEMP POTENTIAL TOTALAVG TEMPAVG PRESSURE GPRESSURE VOLUME PRESSAVG GPRESSAVG
ENERGY: 0 7.9066 2.7249 25.4897 0.0000 -11216.7435 1444.3129 0.0000 0.0000 1743.7980 -7992.5115 292.3602 -9736.3095 -7992.5115 292.3602 12.9887 85.6246 30979.4426 12.9887 85.6246
ENERGY: 300000 7.6764 4.2470 26.5705 0.0000 -11314.0300 1483.6593 0.0000 0.0000 1789.8775 -8001.9993 300.0857 -9791.8769 -8013.4118 297.6835 288.1328 382.5801 30853.1923 -222.9145 -146.9734
ENERGY: 600000 5.3298 1.4685 30.3867 0.0000 -11251.6894 1478.7320 0.0000 0.0000 1749.6338 -7986.1388 293.3386 -9735.7725 -8004.3440 299.0222 127.1869 241.5900 30913.1695 -95.7695 -13.9090
ENERGY: 900000 7.7417 4.0365 28.0438 0.0000 -11415.0572 1548.7006 0.0000 0.0000 1873.3876 -7953.1469 314.0868 -9826.5346 -7993.7400 302.2778 597.0653 670.0260 30939.4707 24.9339 104.8661
ENERGY: 1200000 16.5083 3.5820 28.1336 0.0000 -11395.3865 1506.3815 0.0000 0.0000 1768.7578 -8072.0233 296.5449 -9840.7810 -8006.8116 301.2780 338.3209 396.8663 30657.7029 18.3186 91.7707
ENERGY: 1500000 7.8026 3.0576 27.7614 0.0000 -11317.4241 1440.5863 0.0000 0.0000 1785.5863 -8052.6299 299.3663 -9838.2163 -8008.6332 301.5718 -425.0312 -325.7700 31215.6631 1.3301 74.5248
TCL: Exiting due to exit command.
