Info: SIMULATION PARAMETERS:
Info: TIMESTEP               2
Info: NUMBER OF STEPS        0
Info: STEPS PER CYCLE        10
Info: PERIODIC CELL BASIS 1  31.8248 0 0
Info: PERIODIC CELL BASIS 2  0 31.3844 0
Info: PERIODIC CELL BASIS 3  0 0 30.6608
Info: PERIODIC CELL CENTER   0 0 0
Info: WRAPPING WATERS AROUND PERIODIC BOUNDARIES ON OUTPUT.
Info: WRAPPING ALL CLUSTERS AROUND PERIODIC BOUNDARIES ON OUTPUT.
Info: FIRST LDB TIMESTEP     50
Info: LAST LDB TIMESTEP     -1
Info: HOM BACKGROUND SCALING 1
Info: PME BACKGROUND SCALING 1
Info: MIN ATOMS PER PATCH    40
Info: EMPTY PATCH LOAD       40 ATOMS
Info: VELOCITY FILE          mobley_7261305_equil.vel
Info: CENTER OF MASS MOVING INITIALLY? NO
Info: DIELECTRIC             1
Info: EXCLUDE                SCALED ONE-FOUR
Info: 1-4 ELECTROSTATICS SCALED BY 0.833333
Info: MODIFIED 1-4 VDW PARAMETERS WILL BE USED
Info: DCD FILENAME           mobley_7261305_prod.dcd
Info: DCD FREQUENCY          100000
Info: DCD FIRST STEP         100000
Info: DCD FILE WILL CONTAIN UNIT CELL DATA
Info: XST FILENAME           mobley_7261305_prod.xst
Info: XST FREQUENCY          100000
Info: NO VELOCITY DCD OUTPUT
Info: NO FORCE DCD OUTPUT
Info: OUTPUT FILENAME        mobley_7261305_prod
Info: BINARY OUTPUT FILES WILL BE USED
Info: RESTART FILENAME       mobley_7261305_prod.restart
Info: RESTART FREQUENCY      100000
Info: BINARY RESTART FILES WILL BE USED
Info: CUTOFF                 9
Info: PAIRLIST DISTANCE      11
Info: PAIRLIST SHRINK RATE   0.01
Info: PAIRLIST GROW RATE     0.01
Info: PAIRLIST TRIGGER       0.3
Info: PAIRLISTS PER CYCLE    2
Info: PAIRLISTS ENABLED
Info: MARGIN                 2
Info: HYDROGEN GROUP CUTOFF  2.5
Info: PATCH DIMENSION        15.5
Info: ENERGY OUTPUT STEPS    100000
Info: ENERGY EVALUATION STEPS    100000
Info: OUTPUT ENERGY PRECISION 4
Info: CROSSTERM ENERGY INCLUDED IN DIHEDRAL
Info: TIMING OUTPUT STEPS    1000000
Info: PRESSURE OUTPUT STEPS  100000
Info: ALCHEMICAL FEP ON
Info: FEP CURRENT LAMBDA VALUE     0
Info: FEP COMPARISON LAMBDA VALUE  0.05
Info: FEP INTRA-ALCHEMICAL NON-BONDED INTERACTIONS WILL BE RETAINED
Info: FEP INTRA-ALCHEMICAL BONDED INTERACTIONS WILL BE RETAINED
Info: FEP VDW SHIFTING COEFFICIENT 5
Info: FEP ELEC. ACTIVE FOR ANNIHILATED PARTICLES BETWEEN LAMBDA = 0 AND LAMBDA = 0.5
Info: FEP ELEC. ACTIVE FOR EXNIHILATED PARTICLES BETWEEN LAMBDA = 0.5 AND LAMBDA = 1
Info: FEP VDW ACTIVE FOR ANNIHILATED PARTICLES BETWEEN LAMBDA = 0 AND LAMBDA = 1
Info: FEP VDW ACTIVE FOR EXNIHILATED PARTICLES BETWEEN LAMBDA = 0 AND LAMBDA = 1
Info: FEP BOND ACTIVE FOR ANNIHILATED PARTICLES BETWEEN LAMBDA = 1 AND LAMBDA = 1
Info: FEP BOND ACTIVE FOR EXNIHILATED PARTICLES BETWEEN LAMBDA = 0 AND LAMBDA = 0
Info: LANGEVIN DYNAMICS ACTIVE
Info: LANGEVIN TEMPERATURE   300
Info: LANGEVIN USING BBK INTEGRATOR
Info: LANGEVIN DAMPING COEFFICIENT IS 1 INVERSE PS
Info: LANGEVIN DYNAMICS APPLIED TO HYDROGENS
Info: LANGEVIN PISTON PRESSURE CONTROL ACTIVE
Info:        TARGET PRESSURE IS 1.01325 BAR
Info:     OSCILLATION PERIOD IS 50 FS
Info:             DECAY TIME IS 25 FS
Info:     PISTON TEMPERATURE IS 300 K
Info:       PRESSURE CONTROL IS GROUP-BASED
Info:    INITIAL STRAIN RATE IS -0.000389986 -0.000389986 -0.000389986
Info:       CELL FLUCTUATION IS ISOTROPIC
Info: PARTICLE MESH EWALD (PME) ACTIVE
Info: PME TOLERANCE               1e-06
Info: PME EWALD COEFFICIENT       0.348832
Info: PME INTERPOLATION ORDER     4
Info: PME GRID DIMENSIONS         32 32 32
Info: PME MAXIMUM GRID SPACING    1
Info: PME CALCULATION WILL BE PERFORMED ON GPU
Info: FULL ELECTROSTATIC EVALUATION FREQUENCY      2
Info: USING VERLET I (r-RESPA) MTS SCHEME.
Info: C1 SPLITTING OF LONG RANGE ELECTROSTATICS
Info: PLACING ATOMS IN PATCHES BY HYDROGEN GROUPS
Info: RIGID BONDS TO HYDROGEN : ALL
Info:         ERROR TOLERANCE : 1e-08
Info:          MAX ITERATIONS : 100
Info: RIGID WATER USING SETTLE ALGORITHM
Info: RANDOM NUMBER SEED     1742471896
Info: USE HYDROGEN BONDS?    NO
Info: Using AMBER format force field!
Info: AMBER PARM FILE        mobley_7261305.prmtop
Info: COORDINATE PDB         mobley_7261305.pdb
Info: Exclusions will be read from PARM file!
Info: SCNB (VDW SCALING)     2
Info: USING ARITHMETIC MEAN TO COMBINE L-J SIGMA PARAMETERS
Info: BINARY COORDINATES     mobley_7261305_equil.coor
Info: SUMMARY OF PARAMETERS:
Info: 4 BONDS
Info: 2 ANGLES
Info:   2 HARMONIC
Info:   0 COSINE-BASED
Info: 1 DIHEDRAL
Info: 0 IMPROPER
Info: 0 CROSSTERM
Info: 0 VDW
Info: 10 VDW_PAIRS
Info: 0 NBTHOLE_PAIRS
Info: To read alchdata from file: mobley_7261305.pdb
Info: To read alchflag data from column: 5
Info: STRUCTURE SUMMARY:
Info: 3000 ATOMS
Info: 2999 BONDS
Info: 6 ANGLES
Info: 4 DIHEDRALS
Info: 0 IMPROPERS
Info: 0 CROSSTERMS
Info: 3009 EXCLUSIONS
Info: 2998 RIGID BONDS
Info: ALCH: 0 ATOMS TO DISAPPEAR IN FINAL STATE
Info: ALCH: 6 ATOMS TO APPEAR IN FINAL STATE
Info: 6002 DEGREES OF FREEDOM
Info: 1000 HYDROGEN GROUPS
Info: 3 ATOMS IN LARGEST HYDROGEN GROUP
Info: 1000 MIGRATION GROUPS
Info: 3 ATOMS IN LARGEST MIGRATION GROUP
Info: TOTAL MASS = 18012 amu
Info: TOTAL CHARGE = -0.000200033 e
Info: MASS DENSITY = 0.976694 g/cm^3
Info: ATOM DENSITY = 0.0979621 atoms/A^3
Info: ADDED 0 IMPLICIT EXCLUSIONS
Info: NONBONDED TABLE R-SQUARED SPACING: 0.0625
Info: NONBONDED TABLE SIZE: 705 POINTS
Info: REDUCING NUMBER OF PATCHES TO IMPROVE LOAD BALANCE
Info: REMOVING COM VELOCITY 0.0775989 0.0482907 -0.142971
Info: Use 3D box decompostion in PME FFT.
Info: Updated CUDA force table with 4096 elements.
Info: Updated CUDA LJ table with 4 x 4 elements.
Info: Found 9 unique exclusion lists needing 12 bytes
TCL: Running for 1500000 steps
ETITLE: TS BOND ANGLE DIHED IMPRP ELECT VDW BOUNDARY MISC KINETIC TOTAL TEMP POTENTIAL TOTALAVG TEMPAVG PRESSURE GPRESSURE VOLUME PRESSAVG GPRESSAVG
ENERGY: 0 0.2575 4.4862 7.6587 0.0000 -11060.5646 1553.0678 0.0000 0.0000 1758.5639 -7736.5305 294.8849 -9495.0945 -7736.5305 294.8849 382.2429 457.8967 30624.0958 382.2429 457.8967
ENERGY: 300000 0.0351 6.3695 6.9286 0.0000 -10826.4010 1436.6735 0.0000 0.0000 1769.7532 -7606.6410 296.7612 -9376.3943 -7621.9992 299.0278 -344.4504 -299.4131 31055.1754 57.1323 99.1651
ENERGY: 600000 0.0013 1.0765 7.1272 0.0000 -10952.1387 1511.8972 0.0000 0.0000 1790.7240 -7641.3125 300.2777 -9432.0365 -7588.8189 300.8311 327.4784 354.3538 30365.0625 44.6122 79.7185
ENERGY: 900000 0.9009 3.3420 6.6206 0.0000 -10758.7046 1383.1801 0.0000 0.0000 1814.3670 -7550.2939 304.2422 -9364.6609 -7593.1492 300.0606 -926.9460 -862.7429 31387.7630 16.1489 56.1533
ENERGY: 1200000 0.0003 2.7333 5.6501 0.0000 -10874.1234 1469.0714 0.0000 0.0000 1802.5820 -7594.0864 302.2661 -9396.6683 -7590.9318 299.8677 39.6122 89.7013 30681.4722 -16.0739 23.1281
ENERGY: 1500000 0.1701 7.8013 5.1416 0.0000 -10893.1204 1492.6888 0.0000 0.0000 1830.4029 -7556.9158 306.9312 -9387.3187 -7588.5202 301.1083 535.2097 574.6964 30224.1380 92.8681 136.6898
TCL: Running FEP window   2: Lambda1 0.05   Lambda2 0.1    [dLambda 0.05  ]
TCL: Setting parameter firsttimestep to 0
TCL: Setting parameter alchLambda to 0.05
Info: NONBONDED TABLE R-SQUARED SPACING: 0.0625
Info: NONBONDED TABLE SIZE: 705 POINTS
TCL: Setting parameter alchLambda2 to 0.1
Info: NONBONDED TABLE R-SQUARED SPACING: 0.0625
Info: NONBONDED TABLE SIZE: 705 POINTS
TCL: Running for 1500000 steps
ETITLE: TS BOND ANGLE DIHED IMPRP ELECT VDW BOUNDARY MISC KINETIC TOTAL TEMP POTENTIAL TOTALAVG TEMPAVG PRESSURE GPRESSURE VOLUME PRESSAVG GPRESSAVG
ENERGY: 0 0.1701 7.8013 5.1416 0.0000 -10893.1213 1492.9827 0.0000 0.0000 1829.5249 -7557.5007 306.7840 -9387.0256 -7557.5007 306.7840 500.8256 577.1053 30224.1380 500.8256 577.1053
ENERGY: 300000 0.1603 2.0895 6.9626 0.0000 -10707.0930 1428.7057 0.0000 0.0000 1794.6532 -7474.5217 300.9365 -9269.1749 -7553.5238 299.1520 -116.6834 -81.4706 31246.3271 135.0816 200.8598
ENERGY: 600000 0.0118 0.4380 7.4544 0.0000 -10890.1981 1496.2541 0.0000 0.0000 1864.3232 -7521.7166 312.6192 -9386.0397 -7565.5405 300.2073 367.2312 423.8424 30617.9008 13.6285 84.8981
ENERGY: 900000 1.3456 0.9196 7.8745 0.0000 -10895.4299 1508.2274 0.0000 0.0000 1842.5230 -7534.5398 308.9636 -9377.0628 -7569.5117 300.5001 269.3499 259.5321 31026.4901 31.7930 95.0782
ENERGY: 1200000 0.9685 7.3987 5.2538 0.0000 -10864.3898 1484.3456 0.0000 0.0000 1808.4044 -7558.0188 303.2424 -9366.4231 -7574.2513 300.6073 36.7224 25.3591 31070.3392 38.5491 95.3597
ENERGY: 1500000 0.1819 1.5837 7.3185 0.0000 -10982.5837 1522.3749 0.0000 0.0000 1762.5483 -7688.5765 295.5530 -9451.1248 -7582.2858 300.2863 223.9099 291.5023 30466.7196 4.4460 66.6164
TCL: Running FEP window   3: Lambda1 0.1    Lambda2 0.15000000000000002 [dLambda 0.05000000000000002]
TCL: Setting parameter firsttimestep to 0
TCL: Setting parameter alchLambda to 0.1
Info: NONBONDED TABLE R-SQUARED SPACING: 0.0625
Info: NONBONDED TABLE SIZE: 705 POINTS
TCL: Setting parameter alchLambda2 to 0.15000000000000002
Info: NONBONDED TABLE R-SQUARED SPACING: 0.0625
Info: NONBONDED TABLE SIZE: 705 POINTS
TCL: Running for 1500000 steps
ETITLE: TS BOND ANGLE DIHED IMPRP ELECT VDW BOUNDARY MISC KINETIC TOTAL TEMP POTENTIAL TOTALAVG TEMPAVG PRESSURE GPRESSURE VOLUME PRESSAVG GPRESSAVG
ENERGY: 0 0.1819 1.5837 7.3185 0.0000 -10982.5840 1522.4050 0.0000 0.0000 1761.6818 -7689.4132 295.4077 -9451.0950 -7689.4132 295.4077 205.2801 291.2556 30466.7196 205.2801 291.2556
ENERGY: 300000 0.2340 3.8245 5.8677 0.0000 -10786.2111 1411.5864 0.0000 0.0000 1803.0270 -7561.6716 302.3407 -9364.6986 -7617.7991 300.4203 -441.1374 -376.8740 30975.1544 -63.2296 -17.4463
ENERGY: 600000 0.0110 5.2299 7.4928 0.0000 -10814.3436 1464.9630 0.0000 0.0000 1803.5810 -7533.0660 302.4336 -9336.6470 -7623.1327 297.9500 127.7552 218.1734 30582.3955 -111.4413 -53.9745
ENERGY: 900000 1.8774 1.7615 6.7932 0.0000 -10872.9245 1465.9357 0.0000 0.0000 1811.4748 -7585.0819 303.7573 -9396.5567 -7624.4737 297.7425 -270.6588 -182.7597 30895.9580 -35.6328 24.4842
ENERGY: 1200000 0.3238 5.4862 5.3863 0.0000 -10817.2918 1474.6087 0.0000 0.0000 1818.5239 -7512.9629 304.9393 -9331.4868 -7614.0007 298.6003 30.9098 95.3310 31127.7161 -23.4299 32.2236
ENERGY: 1500000 0.9034 3.5013 6.6212 0.0000 -10828.5424 1392.2378 0.0000 0.0000 1740.5777 -7684.7009 291.8689 -9425.2786 -7613.5019 299.4179 -835.2283 -777.6006 31052.1207 -92.1823 -31.7278
TCL: Running FEP window   4: Lambda1 0.15000000000000002 Lambda2 0.2    [dLambda 0.04999999999999999]
TCL: Setting parameter firsttimestep to 0
TCL: Setting parameter alchLambda to 0.15000000000000002
Info: NONBONDED TABLE R-SQUARED SPACING: 0.0625
Info: NONBONDED TABLE SIZE: 705 POINTS
TCL: Setting parameter alchLambda2 to 0.2
Info: NONBONDED TABLE R-SQUARED SPACING: 0.0625
Info: NONBONDED TABLE SIZE: 705 POINTS
TCL: Running for 1500000 steps
ETITLE: TS BOND ANGLE DIHED IMPRP ELECT VDW BOUNDARY MISC KINETIC TOTAL TEMP POTENTIAL TOTALAVG TEMPAVG PRESSURE GPRESSURE VOLUME PRESSAVG GPRESSAVG
ENERGY: 0 0.9034 3.5013 6.6212 0.0000 -10828.5424 1393.1531 0.0000 0.0000 1739.6818 -7684.6815 291.7187 -9424.3634 -7684.6815 291.7187 -859.9579 -773.4687 31052.1207 -859.9579 -773.4687
ENERGY: 300000 0.0419 3.0965 6.4460 0.0000 -10984.5580 1570.4644 0.0000 0.0000 1814.4517 -7590.0575 304.2565 -9404.5092 -7586.0108 301.0399 717.2563 725.2290 30792.5972 -92.3143 -39.4960
ENERGY: 600000 0.0003 0.6895 7.6356 0.0000 -10840.7980 1459.7640 0.0000 0.0000 1742.5609 -7630.1477 292.2014 -9372.7086 -7587.7126 299.2514 172.3739 259.4736 30260.4341 130.2861 175.0120
ENERGY: 900000 0.0460 3.7382 7.3969 0.0000 -10923.2690 1515.0544 0.0000 0.0000 1861.4287 -7535.6049 312.1338 -9397.0336 -7585.3319 299.7650 198.9489 255.9244 30786.2230 93.3718 133.3200
ENERGY: 1200000 0.0325 4.0686 5.8701 0.0000 -10913.5522 1548.0709 0.0000 0.0000 1804.4339 -7551.0761 302.5766 -9355.5100 -7594.6466 299.6587 771.8588 873.7763 30546.1424 34.5759 78.5647
ENERGY: 1500000 3.2946 5.7648 6.4496 0.0000 -10821.5624 1417.7080 0.0000 0.0000 1817.0036 -7571.3419 304.6844 -9388.3455 -7596.5251 299.4627 -728.4916 -620.0520 31302.2427 -80.5842 -31.3690
TCL: Running FEP window   5: Lambda1 0.2    Lambda2 0.25   [dLambda 0.04999999999999999]
TCL: Setting parameter firsttimestep to 0
TCL: Setting parameter alchLambda to 0.2
Info: NONBONDED TABLE R-SQUARED SPACING: 0.0625
Info: NONBONDED TABLE SIZE: 705 POINTS
TCL: Setting parameter alchLambda2 to 0.25
Info: NONBONDED TABLE R-SQUARED SPACING: 0.0625
Info: NONBONDED TABLE SIZE: 705 POINTS
TCL: Running for 1500000 steps
ETITLE: TS BOND ANGLE DIHED IMPRP ELECT VDW BOUNDARY MISC KINETIC TOTAL TEMP POTENTIAL TOTALAVG TEMPAVG PRESSURE GPRESSURE VOLUME PRESSAVG GPRESSAVG
ENERGY: 0 3.2946 5.7648 6.4496 0.0000 -10821.5629 1417.7164 0.0000 0.0000 1816.1241 -7572.2136 304.5369 -9388.3377 -7572.2136 304.5369 -699.7155 -619.2031 31302.2427 -699.7155 -619.2031
ENERGY: 300000 0.0420 0.9566 9.5678 0.0000 -10972.4863 1564.5995 0.0000 0.0000 1751.6222 -7645.6982 293.7209 -9397.3204 -7603.7806 297.9981 536.7858 628.8646 30825.7059 -165.5543 -98.9745
ENERGY: 600000 1.3408 8.5757 3.5512 0.0000 -10769.8959 1367.7631 0.0000 0.0000 1724.5564 -7664.1087 289.1824 -9388.6651 -7596.9556 298.6587 -1187.2938 -1149.2203 31514.7026 -313.4921 -247.6061
ENERGY: 900000 1.2180 8.4337 6.0430 0.0000 -10834.4906 1450.5765 0.0000 0.0000 1756.4239 -7611.7955 294.5261 -9368.2194 -7602.7327 298.3459 100.1372 106.5116 30417.9302 -297.9122 -233.9849
ENERGY: 1200000 0.2450 1.6127 7.1450 0.0000 -10842.2297 1445.4299 0.0000 0.0000 1759.9596 -7627.8376 295.1189 -9387.7972 -7594.8052 299.3414 -39.4535 62.5232 30627.8395 -127.0909 -58.4701
ENERGY: 1500000 0.2118 3.5923 6.2124 0.0000 -10806.0141 1417.1135 0.0000 0.0000 1740.9260 -7637.9583 291.9273 -9378.8842 -7588.6199 299.1714 -696.3260 -608.8594 31098.4517 -219.2055 -153.6788
TCL: Running FEP window   6: Lambda1 0.25   Lambda2 0.3    [dLambda 0.04999999999999999]
TCL: Setting parameter firsttimestep to 0
TCL: Setting parameter alchLambda to 0.25
Info: NONBONDED TABLE R-SQUARED SPACING: 0.0625
Info: NONBONDED TABLE SIZE: 705 POINTS
TCL: Setting parameter alchLambda2 to 0.3
Info: NONBONDED TABLE R-SQUARED SPACING: 0.0625
Info: NONBONDED TABLE SIZE: 705 POINTS
TCL: Running for 1500000 steps
ETITLE: TS BOND ANGLE DIHED IMPRP ELECT VDW BOUNDARY MISC KINETIC TOTAL TEMP POTENTIAL TOTALAVG TEMPAVG PRESSURE GPRESSURE VOLUME PRESSAVG GPRESSAVG
ENERGY: 0 0.2118 3.5923 6.2124 0.0000 -10806.0150 1417.3146 0.0000 0.0000 1740.0551 -7638.6288 291.7813 -9378.6839 -7638.6288 291.7813 -700.0291 -608.4935 31098.4517 -700.0291 -608.4935
ENERGY: 300000 1.8116 13.7400 2.8754 0.0000 -10929.9288 1491.3105 0.0000 0.0000 1824.7474 -7595.4438 305.9829 -9420.1912 -7584.7364 299.7939 152.2957 229.3487 30404.9934 -332.0412 -253.7281
ENERGY: 600000 1.8685 2.3581 7.7589 0.0000 -10696.0309 1374.6515 0.0000 0.0000 1840.1636 -7469.2302 308.5680 -9309.3939 -7573.5978 300.7285 -505.6301 -521.7735 30924.1295 -324.4594 -258.1721
ENERGY: 900000 4.8822 1.9850 8.9524 0.0000 -10959.0562 1506.9152 0.0000 0.0000 1876.5516 -7559.7698 314.6697 -9436.3214 -7566.8252 302.8832 276.9533 322.8950 30667.3031 -130.7872 -64.3471
ENERGY: 1200000 0.0008 11.0348 3.1421 0.0000 -10895.9293 1514.2401 0.0000 0.0000 1780.6976 -7586.8139 298.5964 -9367.5115 -7570.1297 303.0379 492.0589 522.8241 30448.0134 -19.9103 44.8485
ENERGY: 1500000 1.0989 1.9230 6.7962 0.0000 -10724.9987 1368.9528 0.0000 0.0000 1875.9685 -7470.2593 314.5719 -9346.2278 -7566.2499 303.2843 -896.1579 -804.4962 31364.3270 -107.6654 -35.9719
TCL: Running FEP window   7: Lambda1 0.3    Lambda2 0.35   [dLambda 0.04999999999999999]
TCL: Setting parameter firsttimestep to 0
TCL: Setting parameter alchLambda to 0.3
Info: NONBONDED TABLE R-SQUARED SPACING: 0.0625
Info: NONBONDED TABLE SIZE: 705 POINTS
TCL: Setting parameter alchLambda2 to 0.35
Info: NONBONDED TABLE R-SQUARED SPACING: 0.0625
Info: NONBONDED TABLE SIZE: 705 POINTS
TCL: Running for 1500000 steps
ETITLE: TS BOND ANGLE DIHED IMPRP ELECT VDW BOUNDARY MISC KINETIC TOTAL TEMP POTENTIAL TOTALAVG TEMPAVG PRESSURE GPRESSURE VOLUME PRESSAVG GPRESSAVG
ENERGY: 0 1.0989 1.9230 6.7962 0.0000 -10724.9988 1369.2615 0.0000 0.0000 1875.0237 -7470.8954 314.4135 -9345.9192 -7470.8954 314.4135 -894.7225 -800.1162 31364.3270 -894.7225 -800.1162
ENERGY: 300000 0.3995 2.3211 6.3394 0.0000 -10890.4333 1438.0320 0.0000 0.0000 1782.4317 -7660.9097 298.8872 -9443.3413 -7586.2046 303.5293 -506.4542 -468.0913 30865.8455 -279.3462 -202.4661
ENERGY: 600000 0.0047 1.3206 7.4499 0.0000 -10910.2661 1513.7003 0.0000 0.0000 1802.1662 -7585.6244 302.1964 -9387.7906 -7604.3856 301.6522 221.9489 314.1568 30946.2841 -246.9989 -162.6538
ENERGY: 900000 0.6378 3.1530 7.2613 0.0000 -10832.6390 1420.2596 0.0000 0.0000 1718.6075 -7682.7198 288.1848 -9401.3273 -7609.3282 298.6873 -707.0493 -622.4844 31044.6383 -276.0440 -199.2034
ENERGY: 1200000 1.7612 3.2392 9.4988 0.0000 -10773.0852 1419.6891 0.0000 0.0000 1820.5276 -7518.3692 305.2753 -9338.8968 -7596.0849 299.5007 -163.2615 -133.8470 30495.2319 -278.8032 -212.3135
ENERGY: 1500000 0.6255 4.6304 7.6731 0.0000 -10930.4751 1560.9175 0.0000 0.0000 1696.1171 -7660.5113 284.4135 -9356.6285 -7595.7124 299.6306 747.6538 794.8132 30729.3664 -125.3186 -62.9867
TCL: Running FEP window   8: Lambda1 0.35   Lambda2 0.39999999999999997 [dLambda 0.04999999999999999]
TCL: Setting parameter firsttimestep to 0
TCL: Setting parameter alchLambda to 0.35
Info: NONBONDED TABLE R-SQUARED SPACING: 0.0625
Info: NONBONDED TABLE SIZE: 705 POINTS
TCL: Setting parameter alchLambda2 to 0.39999999999999997
Info: NONBONDED TABLE R-SQUARED SPACING: 0.0625
Info: NONBONDED TABLE SIZE: 705 POINTS
TCL: Running for 1500000 steps
ETITLE: TS BOND ANGLE DIHED IMPRP ELECT VDW BOUNDARY MISC KINETIC TOTAL TEMP POTENTIAL TOTALAVG TEMPAVG PRESSURE GPRESSURE VOLUME PRESSAVG GPRESSAVG
ENERGY: 0 0.6255 4.6304 7.6731 0.0000 -10930.4744 1561.0058 0.0000 0.0000 1695.2440 -7661.2955 284.2671 -9356.5395 -7661.2955 284.2671 709.0611 798.5236 30729.3664 709.0611 798.5236
ENERGY: 300000 1.0147 4.1295 7.0094 0.0000 -10877.5631 1465.2384 0.0000 0.0000 1704.0768 -7696.0942 285.7482 -9400.1710 -7607.2266 294.9423 -411.0191 -385.8505 31269.5414 240.5750 306.7599
ENERGY: 600000 0.7757 2.3978 7.9858 0.0000 -10759.7957 1402.8941 0.0000 0.0000 1803.5897 -7542.1525 302.4351 -9345.7422 -7601.0285 295.8106 -402.1454 -385.1656 30862.6771 225.5227 284.9641
ENERGY: 900000 1.9955 1.1261 6.9930 0.0000 -10790.1770 1443.3187 0.0000 0.0000 1745.9168 -7590.8268 292.7642 -9336.7436 -7588.5498 296.3696 93.4660 193.0518 30413.0650 212.5027 272.6670
ENERGY: 1200000 0.0024 1.7231 9.3226 0.0000 -10925.7912 1497.6948 0.0000 0.0000 1770.9477 -7646.1007 296.9615 -9417.0483 -7595.6612 297.4511 25.3042 113.1955 30915.7629 190.1041 256.7108
ENERGY: 1500000 1.3532 7.2929 8.0776 0.0000 -10861.7076 1485.4833 0.0000 0.0000 1820.3930 -7539.1075 305.2527 -9359.5004 -7586.0815 298.3151 212.3078 240.7570 30799.6873 136.7753 198.4406
TCL: Running FEP window   9: Lambda1 0.39999999999999997 Lambda2 0.44999999999999996 [dLambda 0.04999999999999999]
TCL: Setting parameter firsttimestep to 0
TCL: Setting parameter alchLambda to 0.39999999999999997
Info: NONBONDED TABLE R-SQUARED SPACING: 0.0625
Info: NONBONDED TABLE SIZE: 705 POINTS
TCL: Setting parameter alchLambda2 to 0.44999999999999996
Info: NONBONDED TABLE R-SQUARED SPACING: 0.0625
Info: NONBONDED TABLE SIZE: 705 POINTS
TCL: Running for 1500000 steps
ETITLE: TS BOND ANGLE DIHED IMPRP ELECT VDW BOUNDARY MISC KINETIC TOTAL TEMP POTENTIAL TOTALAVG TEMPAVG PRESSURE GPRESSURE VOLUME PRESSAVG GPRESSAVG
ENERGY: 0 1.3532 7.2929 8.0777 0.0000 -10861.7072 1485.9692 0.0000 0.0000 1819.4910 -7539.5232 305.1015 -9359.0142 -7539.5232 305.1015 154.2904 246.4878 30799.6873 154.2904 246.4878
ENERGY: 300000 0.0177 3.0583 5.6620 0.0000 -10780.2902 1457.7075 0.0000 0.0000 1742.3348 -7571.5097 292.1635 -9313.8445 -7546.5731 301.2904 48.5094 121.6002 30882.2527 -90.1277 -11.5881
ENERGY: 600000 0.1050 6.3090 5.7460 0.0000 -10833.7787 1427.2438 0.0000 0.0000 1804.1213 -7590.2536 302.5242 -9394.3749 -7572.1141 300.2838 -424.9828 -370.3073 31073.9591 -180.6092 -110.1436
ENERGY: 900000 1.7871 2.7534 7.5457 0.0000 -10899.0523 1491.1134 0.0000 0.0000 1781.9766 -7613.8760 298.8109 -9395.8527 -7576.2462 300.0071 105.1327 203.1550 30736.5931 -100.5492 -33.0756
ENERGY: 1200000 0.6151 4.4972 5.1152 0.0000 -10952.6473 1548.0757 0.0000 0.0000 1818.7009 -7575.6433 304.9690 -9394.3442 -7571.8918 300.4512 564.7364 635.4073 30646.9590 0.4428 69.7609
ENERGY: 1500000 0.0344 1.4750 7.4308 0.0000 -10901.5419 1523.7042 0.0000 0.0000 1822.0211 -7546.8765 305.5257 -9368.8975 -7572.1285 301.3755 285.5287 384.8454 31142.8679 -31.7990 34.7551
TCL: Running FEP window  10: Lambda1 0.44999999999999996 Lambda2 0.49999999999999994 [dLambda 0.04999999999999999]
TCL: Setting parameter firsttimestep to 0
TCL: Setting parameter alchLambda to 0.44999999999999996
Info: NONBONDED TABLE R-SQUARED SPACING: 0.0625
Info: NONBONDED TABLE SIZE: 705 POINTS
TCL: Setting parameter alchLambda2 to 0.49999999999999994
Info: NONBONDED TABLE R-SQUARED SPACING: 0.0625
Info: NONBONDED TABLE SIZE: 705 POINTS
TCL: Running for 1500000 steps
ETITLE: TS BOND ANGLE DIHED IMPRP ELECT VDW BOUNDARY MISC KINETIC TOTAL TEMP POTENTIAL TOTALAVG TEMPAVG PRESSURE GPRESSURE VOLUME PRESSAVG GPRESSAVG
ENERGY: 0 0.0344 1.4750 7.4308 0.0000 -10901.5419 1523.7115 0.0000 0.0000 1821.1551 -7547.7352 305.3805 -9368.8902 -7547.7352 305.3805 315.5497 386.3382 31142.8679 315.5497 386.3382
ENERGY: 300000 0.4218 5.5990 5.6511 0.0000 -10757.8729 1401.9542 0.0000 0.0000 1802.7566 -7541.4902 302.2954 -9344.2468 -7561.0081 300.8232 -354.1235 -294.6155 30730.8722 -7.7983 57.0101
ENERGY: 600000 2.2143 6.6865 6.0915 0.0000 -10776.8513 1438.0251 0.0000 0.0000 1759.1399 -7564.6941 294.9815 -9323.8340 -7555.5003 300.4840 -388.0244 -284.8422 31339.0066 -128.2177 -78.8133
ENERGY: 900000 0.5267 1.3515 6.5954 0.0000 -10884.0960 1460.4946 0.0000 0.0000 1788.4016 -7626.7262 299.8882 -9415.1277 -7574.7295 299.8904 -381.5751 -319.7075 31138.2782 -145.1790 -89.6742
ENERGY: 1200000 0.2238 4.3936 5.1860 0.0000 -10798.6224 1431.0791 0.0000 0.0000 1754.1195 -7603.6204 294.1397 -9357.7399 -7580.7944 299.6094 -277.1149 -210.9521 30976.0276 -145.9958 -89.5235
ENERGY: 1500000 0.9547 6.7179 4.1614 0.0000 -10653.9712 1357.5051 0.0000 0.0000 1823.5537 -7461.0784 305.7827 -9284.6321 -7578.5635 299.5963 -813.1173 -742.0276 31372.6037 -170.7026 -106.7570
TCL: Running FEP window  11: Lambda1 0.49999999999999994 Lambda2 0.5499999999999999 [dLambda 0.04999999999999999]
TCL: Setting parameter firsttimestep to 0
TCL: Setting parameter alchLambda to 0.49999999999999994
Info: NONBONDED TABLE R-SQUARED SPACING: 0.0625
Info: NONBONDED TABLE SIZE: 705 POINTS
TCL: Setting parameter alchLambda2 to 0.5499999999999999
Info: NONBONDED TABLE R-SQUARED SPACING: 0.0625
Info: NONBONDED TABLE SIZE: 705 POINTS
TCL: Running for 1500000 steps
ETITLE: TS BOND ANGLE DIHED IMPRP ELECT VDW BOUNDARY MISC KINETIC TOTAL TEMP POTENTIAL TOTALAVG TEMPAVG PRESSURE GPRESSURE VOLUME PRESSAVG GPRESSAVG
ENERGY: 0 0.9547 6.7179 4.1614 0.0000 -10653.9703 1357.5932 0.0000 0.0000 1822.6718 -7461.8713 305.6348 -9284.5431 -7461.8713 305.6348 -814.0848 -740.2925 31372.6037 -814.0848 -740.2925
ENERGY: 300000 0.2704 7.6143 5.3854 0.0000 -10816.1878 1481.3725 0.0000 0.0000 1723.0191 -7598.5261 288.9246 -9321.5452 -7572.3707 296.2246 175.3410 215.0405 30879.9277 -147.2089 -82.5860
ENERGY: 600000 1.0997 1.9573 6.9704 0.0000 -10790.0298 1416.4840 0.0000 0.0000 1789.0624 -7574.4560 299.9991 -9363.5184 -7587.1932 297.0451 -587.6824 -464.1363 31249.7630 -207.0689 -121.8739
ENERGY: 900000 0.5855 5.7890 5.6509 0.0000 -10977.1506 1529.4569 0.0000 0.0000 1806.4513 -7629.2169 302.9149 -9435.6682 -7581.6855 298.4680 396.9149 490.3256 30453.8292 -141.3313 -52.8800
ENERGY: 1200000 0.8330 2.1159 6.3960 0.0000 -10878.9237 1495.2557 0.0000 0.0000 1794.8227 -7579.5004 300.9650 -9374.3231 -7584.1935 298.2342 46.8889 153.2818 31055.1902 -30.8516 51.4636
ENERGY: 1500000 3.5838 4.2506 6.3230 0.0000 -10985.7174 1604.2392 0.0000 0.0000 1741.0977 -7626.2230 291.9561 -9367.3208 -7579.6503 298.8234 1099.1496 1113.9803 30468.8487 67.9966 147.1687
TCL: Running FEP window  12: Lambda1 0.5499999999999999 Lambda2 0.6    [dLambda 0.050000000000000044]
TCL: Setting parameter firsttimestep to 0
TCL: Setting parameter alchLambda to 0.5499999999999999
Info: NONBONDED TABLE R-SQUARED SPACING: 0.0625
Info: NONBONDED TABLE SIZE: 705 POINTS
TCL: Setting parameter alchLambda2 to 0.6
Info: NONBONDED TABLE R-SQUARED SPACING: 0.0625
Info: NONBONDED TABLE SIZE: 705 POINTS
TCL: Running for 1500000 steps
ETITLE: TS BOND ANGLE DIHED IMPRP ELECT VDW BOUNDARY MISC KINETIC TOTAL TEMP POTENTIAL TOTALAVG TEMPAVG PRESSURE GPRESSURE VOLUME PRESSAVG GPRESSAVG
ENERGY: 0 3.5838 4.2506 6.3230 0.0000 -10985.3664 1604.7493 0.0000 0.0000 1740.2152 -7626.2446 291.8081 -9366.4598 -7626.2446 291.8081 1034.4602 1121.5540 30468.8487 1034.4602 1121.5540
ENERGY: 300000 0.0016 4.0679 6.4408 0.0000 -10774.0953 1426.9915 0.0000 0.0000 1823.7376 -7512.8560 305.8136 -9336.5936 -7541.4693 299.8131 -284.8602 -200.3480 31095.3264 144.6742 232.9988
ENERGY: 600000 0.9368 6.9461 4.3708 0.0000 -10946.1184 1461.6480 0.0000 0.0000 1810.4374 -7661.7793 303.5833 -9472.2167 -7590.7321 299.0015 -220.8205 -141.4662 30478.7369 3.8746 84.9361
ENERGY: 900000 0.2068 5.3579 4.8795 0.0000 -10765.5563 1380.1980 0.0000 0.0000 1786.7551 -7588.1590 299.6122 -9374.9141 -7588.0282 299.9571 -842.4084 -708.6668 30822.3084 -41.3096 40.4043
ENERGY: 1200000 0.9621 4.6474 5.7328 0.0000 -10826.0782 1418.7815 0.0000 0.0000 1835.0471 -7560.9072 307.7100 -9395.9543 -7589.0761 300.4944 -224.2979 -173.4972 30481.2766 -113.4571 -38.1603
ENERGY: 1500000 0.0000 2.3222 7.3384 0.0000 -10807.8564 1427.3822 0.0000 0.0000 1756.7411 -7614.0725 294.5793 -9370.8136 -7597.4917 299.7332 -505.6757 -402.1141 31103.3187 -80.3776 -1.4358
TCL: Running FEP window  13: Lambda1 0.6    Lambda2 0.65   [dLambda 0.050000000000000044]
TCL: Setting parameter firsttimestep to 0
TCL: Setting parameter alchLambda to 0.6
Info: NONBONDED TABLE R-SQUARED SPACING: 0.0625
Info: NONBONDED TABLE SIZE: 705 POINTS
TCL: Setting parameter alchLambda2 to 0.65
Info: NONBONDED TABLE R-SQUARED SPACING: 0.0625
Info: NONBONDED TABLE SIZE: 705 POINTS
TCL: Running for 1500000 steps
ETITLE: TS BOND ANGLE DIHED IMPRP ELECT VDW BOUNDARY MISC KINETIC TOTAL TEMP POTENTIAL TOTALAVG TEMPAVG PRESSURE GPRESSURE VOLUME PRESSAVG GPRESSAVG
ENERGY: 0 0.0000 2.3222 7.3384 0.0000 -10807.6229 1427.5604 0.0000 0.0000 1755.8605 -7614.5413 294.4316 -9370.4019 -7614.5413 294.4316 -488.6461 -399.8339 31103.3187 -488.6461 -399.8339
ENERGY: 300000 0.1855 0.6614 9.2827 0.0000 -10877.2639 1514.2453 0.0000 0.0000 1811.9960 -7540.8930 303.8447 -9352.8889 -7541.8751 300.5830 463.1397 566.6893 30768.9424 0.8274 72.7614
ENERGY: 600000 0.9825 1.5993 7.0175 0.0000 -10802.1002 1417.1585 0.0000 0.0000 1785.4131 -7589.9292 299.3871 -9375.3424 -7561.0965 301.0598 -267.0827 -207.6746 30577.1814 -182.6991 -119.8835
ENERGY: 900000 0.1475 1.2524 6.8448 0.0000 -10867.7623 1482.1639 0.0000 0.0000 1772.2611 -7605.0926 297.1817 -9377.3537 -7567.5078 299.4438 -31.9383 25.1304 30965.8196 -170.9115 -107.8447
ENERGY: 1200000 0.1468 9.0903 3.9192 0.0000 -10841.3956 1434.5405 0.0000 0.0000 1812.0434 -7581.6554 303.8526 -9393.6988 -7577.0701 300.3773 -316.9472 -232.7746 30866.5527 -174.1395 -108.4797
ENERGY: 1500000 0.0593 2.8491 7.7026 0.0000 -10876.7416 1502.1548 0.0000 0.0000 1794.5810 -7569.3948 300.9244 -9363.9758 -7582.8316 300.6471 314.0809 343.4730 31066.2380 -133.1925 -74.5517
TCL: Running FEP window  14: Lambda1 0.65   Lambda2 0.7000000000000001 [dLambda 0.050000000000000044]
TCL: Setting parameter firsttimestep to 0
TCL: Setting parameter alchLambda to 0.65
Info: NONBONDED TABLE R-SQUARED SPACING: 0.0625
Info: NONBONDED TABLE SIZE: 705 POINTS
TCL: Setting parameter alchLambda2 to 0.7000000000000001
Info: NONBONDED TABLE R-SQUARED SPACING: 0.0625
Info: NONBONDED TABLE SIZE: 705 POINTS
TCL: Running for 1500000 steps
ETITLE: TS BOND ANGLE DIHED IMPRP ELECT VDW BOUNDARY MISC KINETIC TOTAL TEMP POTENTIAL TOTALAVG TEMPAVG PRESSURE GPRESSURE VOLUME PRESSAVG GPRESSAVG
ENERGY: 0 0.0593 2.8491 7.7026 0.0000 -10877.6454 1502.0937 0.0000 0.0000 1793.6650 -7571.2757 300.7708 -9364.9407 -7571.2757 300.7708 261.3014 340.7798 31066.2380 261.3014 340.7798
ENERGY: 300000 0.4056 3.6041 7.5530 0.0000 -10903.7006 1547.2335 0.0000 0.0000 1835.0991 -7509.8053 307.7187 -9344.9044 -7579.5552 302.1864 939.3209 930.5490 30645.4413 588.1854 622.4346
ENERGY: 600000 0.1873 4.0110 6.6177 0.0000 -10915.7787 1519.0361 0.0000 0.0000 1815.9903 -7569.9363 304.5145 -9385.9266 -7586.7191 300.5691 474.8419 534.4482 30873.1576 483.0982 512.8109
ENERGY: 900000 1.2380 2.0082 7.4642 0.0000 -10834.7726 1440.3102 0.0000 0.0000 1727.8133 -7655.9386 289.7285 -9383.7520 -7618.4080 298.6457 -261.4334 -200.2861 30807.9246 321.8313 354.8511
ENERGY: 1200000 0.1514 4.0072 6.1501 0.0000 -10861.5989 1449.2473 0.0000 0.0000 1766.2017 -7635.8412 296.1656 -9402.0428 -7628.4809 297.5184 -293.3685 -204.9852 30879.3834 231.6917 265.2301
ENERGY: 1500000 0.0802 0.7414 7.1846 0.0000 -10785.7239 1443.8343 0.0000 0.0000 1825.3955 -7508.4880 306.0916 -9333.8835 -7618.9746 297.4632 -110.2879 -97.0787 30930.3249 175.6630 209.4918
TCL: Running FEP window  15: Lambda1 0.7000000000000001 Lambda2 0.7500000000000001 [dLambda 0.050000000000000044]
TCL: Setting parameter firsttimestep to 0
TCL: Setting parameter alchLambda to 0.7000000000000001
Info: NONBONDED TABLE R-SQUARED SPACING: 0.0625
Info: NONBONDED TABLE SIZE: 705 POINTS
TCL: Setting parameter alchLambda2 to 0.7500000000000001
Info: NONBONDED TABLE R-SQUARED SPACING: 0.0625
Info: NONBONDED TABLE SIZE: 705 POINTS
TCL: Running for 1500000 steps
ETITLE: TS BOND ANGLE DIHED IMPRP ELECT VDW BOUNDARY MISC KINETIC TOTAL TEMP POTENTIAL TOTALAVG TEMPAVG PRESSURE GPRESSURE VOLUME PRESSAVG GPRESSAVG
ENERGY: 0 0.0802 0.7414 7.1846 0.0000 -10786.6586 1444.7319 0.0000 0.0000 1824.4831 -7509.4376 305.9386 -9333.9207 -7509.4376 305.9386 -164.3127 -87.2009 30930.3249 -164.3127 -87.2009
ENERGY: 300000 1.5653 3.3865 6.2451 0.0000 -10749.9113 1340.6582 0.0000 0.0000 1815.7907 -7582.2656 304.4810 -9398.0562 -7541.8962 304.0116 -993.5427 -935.7968 30881.8986 -673.1908 -615.9709
ENERGY: 600000 0.0497 2.6385 7.1843 0.0000 -10874.9256 1468.0761 0.0000 0.0000 1807.4815 -7589.4955 303.0877 -9396.9770 -7561.4480 304.9786 -170.6935 -64.1680 30884.9269 -440.3507 -381.1477
ENERGY: 900000 1.4514 4.9018 6.2039 0.0000 -10879.9902 1479.7343 0.0000 0.0000 1839.6506 -7548.0482 308.4819 -9387.6988 -7567.6203 304.0890 -186.4348 -39.6852 31249.5734 -274.2835 -209.2027
ENERGY: 1200000 1.5184 5.9748 5.8413 0.0000 -10738.5986 1396.2268 0.0000 0.0000 1847.8577 -7481.1796 309.8581 -9329.0373 -7559.3968 304.1988 -451.2647 -388.5671 30863.0227 -239.7972 -178.8708
ENERGY: 1500000 0.8202 1.7960 8.0801 0.0000 -10728.4708 1383.1311 0.0000 0.0000 1781.4297 -7553.2137 298.7192 -9334.6434 -7569.1362 302.6685 -829.7644 -792.6125 31340.5413 -250.2120 -192.4946
TCL: Running FEP window  16: Lambda1 0.7500000000000001 Lambda2 0.8000000000000002 [dLambda 0.050000000000000044]
TCL: Setting parameter firsttimestep to 0
TCL: Setting parameter alchLambda to 0.7500000000000001
Info: NONBONDED TABLE R-SQUARED SPACING: 0.0625
Info: NONBONDED TABLE SIZE: 705 POINTS
TCL: Setting parameter alchLambda2 to 0.8000000000000002
Info: NONBONDED TABLE R-SQUARED SPACING: 0.0625
Info: NONBONDED TABLE SIZE: 705 POINTS
TCL: Running for 1500000 steps
ETITLE: TS BOND ANGLE DIHED IMPRP ELECT VDW BOUNDARY MISC KINETIC TOTAL TEMP POTENTIAL TOTALAVG TEMPAVG PRESSURE GPRESSURE VOLUME PRESSAVG GPRESSAVG
ENERGY: 0 0.8202 1.7960 8.0801 0.0000 -10730.2364 1383.7643 0.0000 0.0000 1780.5845 -7555.1913 298.5774 -9335.7758 -7555.1913 298.5774 -869.2248 -787.5725 31340.5413 -869.2248 -787.5725
ENERGY: 300000 0.3203 5.2999 6.5780 0.0000 -10718.4962 1408.2501 0.0000 0.0000 1758.9573 -7539.0905 294.9509 -9298.0478 -7531.9223 299.4883 -238.7877 -134.5043 30942.7896 -267.7445 -204.9332
ENERGY: 600000 1.3807 4.2880 6.7692 0.0000 -10729.8647 1438.2707 0.0000 0.0000 1767.0124 -7512.1437 296.3016 -9279.1561 -7545.0456 297.6990 -2.2313 113.2966 30879.1410 -203.6056 -136.3698
ENERGY: 900000 1.3884 8.6884 6.0680 0.0000 -10852.2104 1457.6647 0.0000 0.0000 1769.5668 -7608.8342 296.7299 -9378.4010 -7554.9197 297.7851 -535.8707 -459.9236 31438.7424 -208.4560 -134.3825
ENERGY: 1200000 3.2153 5.9505 5.6166 0.0000 -10867.1442 1436.4123 0.0000 0.0000 1771.6643 -7644.2852 297.0817 -9415.9495 -7563.9297 298.1805 -628.3840 -542.8557 30815.4562 -175.9039 -105.9805
ENERGY: 1500000 0.1677 4.4785 6.0018 0.0000 -10878.8486 1450.2174 0.0000 0.0000 1798.7667 -7619.2165 301.6263 -9417.9833 -7567.2401 299.0488 -96.9604 -137.7676 30811.8317 -100.1822 -33.8919
TCL: Running FEP window  17: Lambda1 0.8000000000000002 Lambda2 0.8500000000000002 [dLambda 0.050000000000000044]
TCL: Setting parameter firsttimestep to 0
TCL: Setting parameter alchLambda to 0.8000000000000002
Info: NONBONDED TABLE R-SQUARED SPACING: 0.0625
Info: NONBONDED TABLE SIZE: 705 POINTS
TCL: Setting parameter alchLambda2 to 0.8500000000000002
Info: NONBONDED TABLE R-SQUARED SPACING: 0.0625
Info: NONBONDED TABLE SIZE: 705 POINTS
TCL: Running for 1500000 steps
ETITLE: TS BOND ANGLE DIHED IMPRP ELECT VDW BOUNDARY MISC KINETIC TOTAL TEMP POTENTIAL TOTALAVG TEMPAVG PRESSURE GPRESSURE VOLUME PRESSAVG GPRESSAVG
ENERGY: 0 0.1677 4.4785 6.0018 0.0000 -10880.3983 1451.1434 0.0000 0.0000 1797.8430 -7620.7640 301.4714 -9418.6070 -7620.7640 301.4714 -201.4741 -127.9446 30811.8317 -201.4741 -127.9446
ENERGY: 300000 0.1911 3.4981 6.1708 0.0000 -10616.9066 1345.6407 0.0000 0.0000 1803.1866 -7458.2194 302.3675 -9261.4060 -7544.6502 304.3653 -802.6477 -677.3240 31196.7666 -326.2435 -252.7337
ENERGY: 600000 1.9920 1.2188 7.6712 0.0000 -10738.7658 1379.1386 0.0000 0.0000 1808.2276 -7540.5177 303.2128 -9348.7452 -7553.9393 304.0387 -634.9031 -549.0687 31105.4207 -246.5698 -186.2625
ENERGY: 900000 0.8899 6.4726 5.8380 0.0000 -10869.7443 1474.0666 0.0000 0.0000 1745.5095 -7636.9677 292.6959 -9382.4773 -7573.6926 302.1032 22.7268 65.8220 30768.5326 -214.9017 -160.6780
ENERGY: 1200000 0.0017 2.3885 6.2149 0.0000 -10898.0250 1482.5179 0.0000 0.0000 1797.9917 -7608.9102 301.4964 -9406.9019 -7580.0556 301.3622 232.4877 314.0604 30562.2202 -113.4737 -55.9406
ENERGY: 1500000 0.0925 2.7048 6.2801 0.0000 -10886.0809 1505.6972 0.0000 0.0000 1788.9412 -7582.3651 299.9787 -9371.3063 -7575.4894 301.2109 387.8995 436.7602 30491.9439 -84.6710 -25.4912
TCL: Running FEP window  18: Lambda1 0.8500000000000002 Lambda2 0.9000000000000002 [dLambda 0.050000000000000044]
TCL: Setting parameter firsttimestep to 0
TCL: Setting parameter alchLambda to 0.8500000000000002
Info: NONBONDED TABLE R-SQUARED SPACING: 0.0625
Info: NONBONDED TABLE SIZE: 705 POINTS
TCL: Setting parameter alchLambda2 to 0.9000000000000002
Info: NONBONDED TABLE R-SQUARED SPACING: 0.0625
Info: NONBONDED TABLE SIZE: 705 POINTS
TCL: Running for 1500000 steps
ETITLE: TS BOND ANGLE DIHED IMPRP ELECT VDW BOUNDARY MISC KINETIC TOTAL TEMP POTENTIAL TOTALAVG TEMPAVG PRESSURE GPRESSURE VOLUME PRESSAVG GPRESSAVG
ENERGY: 0 0.0925 2.7048 6.2801 0.0000 -10888.0638 1507.0226 0.0000 0.0000 1788.0582 -7583.9055 299.8307 -9371.9638 -7583.9055 299.8307 359.9391 449.5712 30491.9439 359.9391 449.5712
ENERGY: 300000 0.1206 2.5405 6.9179 0.0000 -10786.6124 1416.8918 0.0000 0.0000 1800.9118 -7559.2297 301.9860 -9360.1415 -7610.6310 299.3982 -208.5861 -158.6115 30751.2080 -120.9341 -43.9017
ENERGY: 600000 0.2730 3.2242 6.5396 0.0000 -11052.3658 1541.9842 0.0000 0.0000 1818.9263 -7681.4186 305.0068 -9500.3449 -7625.6220 300.4199 344.5858 357.9972 30542.9877 -144.6367 -68.2506
ENERGY: 900000 0.0469 1.9382 6.4067 0.0000 -10833.5869 1460.4540 0.0000 0.0000 1760.5814 -7604.1597 295.2232 -9364.7411 -7613.1424 300.3226 -302.6490 -304.3497 31474.0344 -195.6564 -132.7753
ENERGY: 1200000 0.0048 4.7470 5.3805 0.0000 -10823.8152 1465.0902 0.0000 0.0000 1764.9829 -7583.6099 295.9613 -9348.5927 -7603.4439 300.4373 -21.9409 -43.8413 30941.2519 31.5269 87.0418
ENERGY: 1500000 0.0100 4.2633 6.9451 0.0000 -10805.9517 1396.2882 0.0000 0.0000 1818.0478 -7580.3973 304.8595 -9398.4450 -7595.5769 300.5129 -519.6042 -498.4839 30580.1675 9.4702 63.1935
TCL: Running FEP window  19: Lambda1 0.9000000000000002 Lambda2 0.9500000000000003 [dLambda 0.050000000000000044]
TCL: Setting parameter firsttimestep to 0
TCL: Setting parameter alchLambda to 0.9000000000000002
Info: NONBONDED TABLE R-SQUARED SPACING: 0.0625
Info: NONBONDED TABLE SIZE: 705 POINTS
TCL: Setting parameter alchLambda2 to 0.9500000000000003
Info: NONBONDED TABLE R-SQUARED SPACING: 0.0625
Info: NONBONDED TABLE SIZE: 705 POINTS
TCL: Running for 1500000 steps
ETITLE: TS BOND ANGLE DIHED IMPRP ELECT VDW BOUNDARY MISC KINETIC TOTAL TEMP POTENTIAL TOTALAVG TEMPAVG PRESSURE GPRESSURE VOLUME PRESSAVG GPRESSAVG
ENERGY: 0 0.0100 4.2633 6.9451 0.0000 -10808.5359 1398.4368 0.0000 0.0000 1817.1529 -7581.7278 304.7094 -9398.8807 -7581.7278 304.7094 -569.8422 -477.3610 30580.1675 -569.8422 -477.3610
ENERGY: 300000 0.0091 5.4699 7.3423 0.0000 -10801.3239 1427.0633 0.0000 0.0000 1783.0518 -7578.3874 298.9912 -9361.4392 -7600.2241 298.8842 -62.4411 -1.4500 30517.6585 -144.8847 -91.4267
ENERGY: 600000 0.1387 4.0441 6.0737 0.0000 -10985.1152 1529.0009 0.0000 0.0000 1832.0162 -7613.8417 307.2018 -9445.8579 -7621.7737 298.9582 369.2080 407.9709 30504.9582 -56.3589 -12.1114
ENERGY: 900000 0.3685 3.4504 7.5066 0.0000 -10796.0946 1471.0605 0.0000 0.0000 1751.1381 -7562.5704 293.6397 -9313.7085 -7606.5241 299.4352 271.8490 345.7990 30634.3077 -53.3923 11.1145
ENERGY: 1200000 0.0877 3.5581 6.7727 0.0000 -10805.6106 1438.6872 0.0000 0.0000 1796.4723 -7560.0326 301.2416 -9356.5049 -7605.2058 299.1765 -327.3079 -275.6581 31286.2430 -82.9401 -18.4450
ENERGY: 1500000 0.1686 2.4467 7.1425 0.0000 -10987.0846 1584.4976 0.0000 0.0000 1804.3013 -7588.5278 302.5544 -9392.8292 -7606.0680 299.3008 971.0743 1042.4767 30531.3014 -114.2519 -46.5769
TCL: Running FEP window  20: Lambda1 0.9500000000000003 Lambda2 1.0    [dLambda 0.04999999999999971]
TCL: Setting parameter firsttimestep to 0
TCL: Setting parameter alchLambda to 0.9500000000000003
Info: NONBONDED TABLE R-SQUARED SPACING: 0.0625
Info: NONBONDED TABLE SIZE: 705 POINTS
TCL: Setting parameter alchLambda2 to 1.0
Info: NONBONDED TABLE R-SQUARED SPACING: 0.0625
Info: NONBONDED TABLE SIZE: 705 POINTS
TCL: Running for 1500000 steps
ETITLE: TS BOND ANGLE DIHED IMPRP ELECT VDW BOUNDARY MISC KINETIC TOTAL TEMP POTENTIAL TOTALAVG TEMPAVG PRESSURE GPRESSURE VOLUME PRESSAVG GPRESSAVG
ENERGY: 0 0.1686 2.4467 7.1425 0.0000 -10988.8309 1585.0112 0.0000 0.0000 1803.3970 -7590.6648 302.4028 -9394.0618 -7590.6648 302.4028 969.0567 1045.4048 30531.3014 969.0567 1045.4048
ENERGY: 300000 1.6289 2.2325 7.3504 0.0000 -10779.6977 1425.8160 0.0000 0.0000 1713.0214 -7629.6485 287.2481 -9342.6699 -7601.8658 296.3259 -313.7642 -282.6948 31241.2932 273.8120 334.4250
ENERGY: 600000 0.2023 2.1731 9.0790 0.0000 -10996.2349 1588.0675 0.0000 0.0000 1813.6531 -7583.0598 304.1225 -9396.7129 -7647.0610 296.0657 685.5566 736.2428 31032.2653 82.8232 139.6404
ENERGY: 900000 0.7905 4.8302 5.9870 0.0000 -10680.1690 1387.4728 0.0000 0.0000 1801.1272 -7479.9612 302.0221 -9281.0884 -7625.0843 296.6727 -345.3234 -322.1541 31055.2486 -16.0328 37.0606
ENERGY: 1200000 0.3796 1.9132 6.8481 0.0000 -10868.7856 1513.1497 0.0000 0.0000 1743.8219 -7602.6731 292.4129 -9346.4950 -7620.1018 296.9751 499.8577 535.2448 30661.9999 79.6162 138.9776
ENERGY: 1500000 0.3345 3.6781 5.6092 0.0000 -10830.4795 1418.3542 0.0000 0.0000 1818.3607 -7584.1428 304.9119 -9402.5035 -7607.9796 298.1316 -250.0286 -154.8936 30480.4537 90.9793 152.5635
TCL: Exiting due to exit command.
