Info: SIMULATION PARAMETERS:
Info: TIMESTEP               2
Info: NUMBER OF STEPS        0
Info: STEPS PER CYCLE        10
Info: PERIODIC CELL BASIS 1  30.9935 0 0
Info: PERIODIC CELL BASIS 2  0 30.7155 0
Info: PERIODIC CELL BASIS 3  0 0 31.6247
Info: PERIODIC CELL CENTER   0 0 0
Info: WRAPPING WATERS AROUND PERIODIC BOUNDARIES ON OUTPUT.
Info: WRAPPING ALL CLUSTERS AROUND PERIODIC BOUNDARIES ON OUTPUT.
Info: FIRST LDB TIMESTEP     50
Info: LAST LDB TIMESTEP     -1
Info: HOM BACKGROUND SCALING 1
Info: PME BACKGROUND SCALING 1
Info: MIN ATOMS PER PATCH    40
Info: EMPTY PATCH LOAD       40 ATOMS
Info: VELOCITY FILE          mobley_6359135_equil.vel
Info: CENTER OF MASS MOVING INITIALLY? NO
Info: DIELECTRIC             1
Info: EXCLUDE                SCALED ONE-FOUR
Info: 1-4 ELECTROSTATICS SCALED BY 0.833333
Info: MODIFIED 1-4 VDW PARAMETERS WILL BE USED
Info: DCD FILENAME           mobley_6359135_prod.dcd
Info: DCD FREQUENCY          100000
Info: DCD FIRST STEP         100000
Info: DCD FILE WILL CONTAIN UNIT CELL DATA
Info: XST FILENAME           mobley_6359135_prod.xst
Info: XST FREQUENCY          100000
Info: NO VELOCITY DCD OUTPUT
Info: NO FORCE DCD OUTPUT
Info: OUTPUT FILENAME        mobley_6359135_prod
Info: BINARY OUTPUT FILES WILL BE USED
Info: RESTART FILENAME       mobley_6359135_prod.restart
Info: RESTART FREQUENCY      100000
Info: BINARY RESTART FILES WILL BE USED
Info: CUTOFF                 9
Info: PAIRLIST DISTANCE      11
Info: PAIRLIST SHRINK RATE   0.01
Info: PAIRLIST GROW RATE     0.01
Info: PAIRLIST TRIGGER       0.3
Info: PAIRLISTS PER CYCLE    2
Info: PAIRLISTS ENABLED
Info: MARGIN                 2
Info: HYDROGEN GROUP CUTOFF  2.5
Info: PATCH DIMENSION        15.5
Info: ENERGY OUTPUT STEPS    100000
Info: ENERGY EVALUATION STEPS    100000
Info: OUTPUT ENERGY PRECISION 4
Info: CROSSTERM ENERGY INCLUDED IN DIHEDRAL
Info: TIMING OUTPUT STEPS    1000000
Info: PRESSURE OUTPUT STEPS  100000
Info: ALCHEMICAL FEP ON
Info: FEP CURRENT LAMBDA VALUE     1
Info: FEP COMPARISON LAMBDA VALUE  0.95
Info: FEP INTRA-ALCHEMICAL NON-BONDED INTERACTIONS WILL BE RETAINED
Info: FEP INTRA-ALCHEMICAL BONDED INTERACTIONS WILL BE RETAINED
Info: FEP VDW SHIFTING COEFFICIENT 5
Info: FEP ELEC. ACTIVE FOR ANNIHILATED PARTICLES BETWEEN LAMBDA = 0 AND LAMBDA = 0.5
Info: FEP ELEC. ACTIVE FOR EXNIHILATED PARTICLES BETWEEN LAMBDA = 0.5 AND LAMBDA = 1
Info: FEP VDW ACTIVE FOR ANNIHILATED PARTICLES BETWEEN LAMBDA = 0 AND LAMBDA = 1
Info: FEP VDW ACTIVE FOR EXNIHILATED PARTICLES BETWEEN LAMBDA = 0 AND LAMBDA = 1
Info: FEP BOND ACTIVE FOR ANNIHILATED PARTICLES BETWEEN LAMBDA = 1 AND LAMBDA = 1
Info: FEP BOND ACTIVE FOR EXNIHILATED PARTICLES BETWEEN LAMBDA = 0 AND LAMBDA = 0
Info: LANGEVIN DYNAMICS ACTIVE
Info: LANGEVIN TEMPERATURE   300
Info: LANGEVIN USING BBK INTEGRATOR
Info: LANGEVIN DAMPING COEFFICIENT IS 1 INVERSE PS
Info: LANGEVIN DYNAMICS APPLIED TO HYDROGENS
Info: LANGEVIN PISTON PRESSURE CONTROL ACTIVE
Info:        TARGET PRESSURE IS 1.01325 BAR
Info:     OSCILLATION PERIOD IS 50 FS
Info:             DECAY TIME IS 25 FS
Info:     PISTON TEMPERATURE IS 300 K
Info:       PRESSURE CONTROL IS GROUP-BASED
Info:    INITIAL STRAIN RATE IS 0.000348209 0.000348209 0.000348209
Info:       CELL FLUCTUATION IS ISOTROPIC
Info: PARTICLE MESH EWALD (PME) ACTIVE
Info: PME TOLERANCE               1e-06
Info: PME EWALD COEFFICIENT       0.348832
Info: PME INTERPOLATION ORDER     4
Info: PME GRID DIMENSIONS         32 32 32
Info: PME MAXIMUM GRID SPACING    1
Info: PME CALCULATION WILL BE PERFORMED ON GPU
Info: FULL ELECTROSTATIC EVALUATION FREQUENCY      2
Info: USING VERLET I (r-RESPA) MTS SCHEME.
Info: C1 SPLITTING OF LONG RANGE ELECTROSTATICS
Info: PLACING ATOMS IN PATCHES BY HYDROGEN GROUPS
Info: RIGID BONDS TO HYDROGEN : ALL
Info:         ERROR TOLERANCE : 1e-08
Info:          MAX ITERATIONS : 100
Info: RIGID WATER USING SETTLE ALGORITHM
Info: RANDOM NUMBER SEED     1741944110
Info: USE HYDROGEN BONDS?    NO
Info: Using AMBER format force field!
Info: AMBER PARM FILE        mobley_6359135.prmtop
Info: COORDINATE PDB         mobley_6359135.pdb
Info: Exclusions will be read from PARM file!
Info: SCNB (VDW SCALING)     2
Info: USING ARITHMETIC MEAN TO COMBINE L-J SIGMA PARAMETERS
Info: BINARY COORDINATES     mobley_6359135_equil.coor
Info: SUMMARY OF PARAMETERS:
Info: 3 BONDS
Info: 1 ANGLES
Info:   1 HARMONIC
Info:   0 COSINE-BASED
Info: 0 DIHEDRAL
Info: 0 IMPROPER
Info: 0 CROSSTERM
Info: 0 VDW
Info: 10 VDW_PAIRS
Info: 0 NBTHOLE_PAIRS
Info: To read alchdata from file: mobley_6359135.pdb
Info: To read alchflag data from column: 5
Info: STRUCTURE SUMMARY:
Info: 2939 ATOMS
Info: 2938 BONDS
Info: 6 ANGLES
Info: 0 DIHEDRALS
Info: 0 IMPROPERS
Info: 0 CROSSTERMS
Info: 2944 EXCLUSIONS
Info: 2934 RIGID BONDS
Info: ALCH: 0 ATOMS TO DISAPPEAR IN FINAL STATE
Info: ALCH: 5 ATOMS TO APPEAR IN FINAL STATE
Info: 5883 DEGREES OF FREEDOM
Info: 983 HYDROGEN GROUPS
Info: 3 ATOMS IN LARGEST HYDROGEN GROUP
Info: 983 MIGRATION GROUPS
Info: 3 ATOMS IN LARGEST MIGRATION GROUP
Info: TOTAL MASS = 17773.5 amu
Info: TOTAL CHARGE = -9.99868e-05 e
Info: MASS DENSITY = 0.980341 g/cm^3
Info: ATOM DENSITY = 0.0976215 atoms/A^3
Info: ADDED 0 IMPLICIT EXCLUSIONS
Info: NONBONDED TABLE R-SQUARED SPACING: 0.0625
Info: NONBONDED TABLE SIZE: 705 POINTS
Info: REMOVING COM VELOCITY -0.0116118 0.14394 0.142419
Info: Use 3D box decompostion in PME FFT.
Info: Updated CUDA force table with 4096 elements.
Info: Updated CUDA LJ table with 4 x 4 elements.
Info: Found 8 unique exclusion lists needing 8 bytes
TCL: Running for 1500000 steps
ETITLE: TS BOND ANGLE DIHED IMPRP ELECT VDW BOUNDARY MISC KINETIC TOTAL TEMP POTENTIAL TOTALAVG TEMPAVG PRESSURE GPRESSURE VOLUME PRESSAVG GPRESSAVG
ENERGY: 0 0.1183 2.7366 0.0000 0.0000 -10712.6204 1383.2743 0.0000 0.0000 1725.3884 -7601.1028 295.1742 -9326.4912 -7601.1028 295.1742 -574.2465 -484.2223 30106.0643 -574.2465 -484.2223
ENERGY: 300000 1.3545 0.5214 0.0000 0.0000 -10675.9426 1401.9783 0.0000 0.0000 1778.3610 -7493.7274 304.2366 -9272.0884 -7525.0529 299.8465 -475.8339 -347.2972 30387.6742 -198.2752 -87.6199
ENERGY: 600000 0.2222 0.2682 0.0000 0.0000 -10673.7951 1425.1717 0.0000 0.0000 1732.1401 -7515.9930 296.3293 -9248.1331 -7506.4766 298.7562 -90.6314 -36.9369 30675.0548 -23.2733 56.3578
ENERGY: 900000 2.5684 0.2621 0.0000 0.0000 -10693.5450 1428.2511 0.0000 0.0000 1808.5323 -7453.9310 309.3982 -9262.4633 -7478.3399 301.1728 221.6514 324.6621 29783.1407 -33.4086 46.6293
ENERGY: 1200000 2.9381 1.2749 0.0000 0.0000 -10670.5473 1442.0497 0.0000 0.0000 1749.7313 -7474.5534 299.3387 -9224.2847 -7465.2563 300.5755 262.8315 294.4058 30234.5599 -125.6701 -51.1174
ENERGY: 1500000 2.0355 1.1497 0.0000 0.0000 -10572.9376 1342.0067 0.0000 0.0000 1733.8168 -7493.9289 296.6161 -9227.7457 -7466.2875 300.6880 -803.6480 -716.5790 30408.3566 -102.9270 -32.2886
TCL: Running FEP window   2: Lambda1 0.95   Lambda2 0.8999999999999999 [dLambda -0.050000000000000044]
TCL: Setting parameter firsttimestep to 0
TCL: Setting parameter alchLambda to 0.95
Info: NONBONDED TABLE R-SQUARED SPACING: 0.0625
Info: NONBONDED TABLE SIZE: 705 POINTS
TCL: Setting parameter alchLambda2 to 0.8999999999999999
Info: NONBONDED TABLE R-SQUARED SPACING: 0.0625
Info: NONBONDED TABLE SIZE: 705 POINTS
TCL: Running for 1500000 steps
ETITLE: TS BOND ANGLE DIHED IMPRP ELECT VDW BOUNDARY MISC KINETIC TOTAL TEMP POTENTIAL TOTALAVG TEMPAVG PRESSURE GPRESSURE VOLUME PRESSAVG GPRESSAVG
ENERGY: 0 2.0355 1.1497 0.0000 0.0000 -10572.8655 1342.4817 0.0000 0.0000 1732.9365 -7494.2620 296.4655 -9227.1986 -7494.2620 296.4655 -799.2465 -720.1050 30408.3566 -799.2465 -720.1050
ENERGY: 300000 0.4214 2.7201 0.0000 0.0000 -10805.9213 1553.9020 0.0000 0.0000 1789.0933 -7459.7845 306.0726 -9248.8778 -7515.6759 298.2570 964.0214 956.7332 30377.8917 54.1187 100.4615
ENERGY: 600000 1.2108 1.5412 0.0000 0.0000 -10710.4477 1418.2466 0.0000 0.0000 1728.4985 -7560.9507 295.7063 -9289.4492 -7526.8437 297.2158 -365.0128 -294.9745 30409.9479 -36.4767 13.2332
ENERGY: 900000 1.6520 1.3159 0.0000 0.0000 -10734.4247 1461.3954 0.0000 0.0000 1698.5992 -7571.4622 290.5912 -9270.0614 -7523.9766 296.3533 46.8519 125.9364 30371.8105 137.6655 188.0360
ENERGY: 1200000 0.4218 2.5404 0.0000 0.0000 -10682.6412 1503.0682 0.0000 0.0000 1784.7372 -7391.8736 305.3274 -9176.6108 -7510.8044 297.6168 649.0124 669.1711 30575.3874 148.9944 198.7271
ENERGY: 1500000 1.6533 3.7178 0.0000 0.0000 -10525.5594 1343.4637 0.0000 0.0000 1760.1171 -7416.6076 301.1155 -9176.7246 -7495.8476 298.7586 -457.4856 -422.5197 30395.2592 139.8766 187.3080
TCL: Running FEP window   3: Lambda1 0.8999999999999999 Lambda2 0.8499999999999999 [dLambda -0.050000000000000044]
TCL: Setting parameter firsttimestep to 0
TCL: Setting parameter alchLambda to 0.8999999999999999
Info: NONBONDED TABLE R-SQUARED SPACING: 0.0625
Info: NONBONDED TABLE SIZE: 705 POINTS
TCL: Setting parameter alchLambda2 to 0.8499999999999999
Info: NONBONDED TABLE R-SQUARED SPACING: 0.0625
Info: NONBONDED TABLE SIZE: 705 POINTS
TCL: Running for 1500000 steps
ETITLE: TS BOND ANGLE DIHED IMPRP ELECT VDW BOUNDARY MISC KINETIC TOTAL TEMP POTENTIAL TOTALAVG TEMPAVG PRESSURE GPRESSURE VOLUME PRESSAVG GPRESSAVG
ENERGY: 0 1.6533 3.7178 0.0000 0.0000 -10525.5641 1343.6292 0.0000 0.0000 1759.2805 -7417.2834 300.9724 -9176.5638 -7417.2834 300.9724 -511.8460 -428.4320 30395.2592 -511.8460 -428.4320
ENERGY: 300000 1.3081 0.5199 0.0000 0.0000 -10771.6507 1439.9716 0.0000 0.0000 1756.6142 -7573.2369 300.5162 -9329.8511 -7455.7284 301.1795 -79.9490 -28.7679 30114.8697 -174.9355 -98.9883
ENERGY: 600000 1.3864 5.6477 0.0000 0.0000 -10571.2996 1386.2299 0.0000 0.0000 1768.3595 -7409.6760 302.5256 -9178.0356 -7450.5187 301.8097 -178.3948 -72.2557 30369.2943 -250.0180 -188.0841
ENERGY: 900000 0.5993 1.5734 0.0000 0.0000 -10666.2900 1442.6523 0.0000 0.0000 1779.1202 -7442.3448 304.3665 -9221.4650 -7443.1977 301.5897 66.6891 86.6382 30557.2980 -304.8236 -242.5376
ENERGY: 1200000 0.5834 0.8280 0.0000 0.0000 -10530.8104 1326.6222 0.0000 0.0000 1710.5173 -7492.2595 292.6301 -9202.7768 -7463.9172 300.3606 -918.2499 -853.9212 30751.5827 -382.3746 -323.4936
ENERGY: 1500000 1.1481 1.9209 0.0000 0.0000 -10603.1333 1329.8227 0.0000 0.0000 1705.2531 -7564.9886 291.7295 -9270.2417 -7479.1965 298.7305 -999.5370 -963.1154 30522.8584 -404.4324 -345.5202
TCL: Running FEP window   4: Lambda1 0.8499999999999999 Lambda2 0.7999999999999998 [dLambda -0.050000000000000044]
TCL: Setting parameter firsttimestep to 0
TCL: Setting parameter alchLambda to 0.8499999999999999
Info: NONBONDED TABLE R-SQUARED SPACING: 0.0625
Info: NONBONDED TABLE SIZE: 705 POINTS
TCL: Setting parameter alchLambda2 to 0.7999999999999998
Info: NONBONDED TABLE R-SQUARED SPACING: 0.0625
Info: NONBONDED TABLE SIZE: 705 POINTS
TCL: Running for 1500000 steps
ETITLE: TS BOND ANGLE DIHED IMPRP ELECT VDW BOUNDARY MISC KINETIC TOTAL TEMP POTENTIAL TOTALAVG TEMPAVG PRESSURE GPRESSURE VOLUME PRESSAVG GPRESSAVG
ENERGY: 0 1.1481 1.9209 0.0000 0.0000 -10603.1270 1329.8902 0.0000 0.0000 1704.4116 -7565.7562 291.5856 -9270.1678 -7565.7562 291.5856 -1061.5906 -973.5460 30522.8584 -1061.5906 -973.5460
ENERGY: 300000 0.2580 1.3523 0.0000 0.0000 -10702.5090 1411.5096 0.0000 0.0000 1727.1639 -7562.2251 295.4780 -9289.3891 -7520.2163 298.4243 -227.1590 -196.9729 30196.8334 -425.9210 -375.6731
ENERGY: 600000 0.8600 1.3057 0.0000 0.0000 -10723.5084 1473.8059 0.0000 0.0000 1767.0024 -7480.5343 302.2934 -9247.5367 -7520.7901 301.2978 275.6327 352.0187 30052.6041 -10.1607 44.3126
ENERGY: 900000 1.0445 0.9519 0.0000 0.0000 -10664.2992 1416.4191 0.0000 0.0000 1743.5796 -7502.3040 298.2863 -9245.8836 -7502.4013 301.9221 -233.4922 -160.5253 30263.1435 -82.2943 -33.7127
ENERGY: 1200000 0.4995 1.2219 0.0000 0.0000 -10736.9560 1441.1664 0.0000 0.0000 1827.9901 -7466.0781 312.7270 -9294.0682 -7490.8072 303.2057 -3.8067 15.3079 30375.1677 -123.2572 -78.9601
ENERGY: 1500000 0.2948 2.2043 0.0000 0.0000 -10719.3656 1498.0518 0.0000 0.0000 1742.1261 -7476.6887 298.0376 -9218.8147 -7495.5263 302.6224 250.1721 289.3506 30958.3496 -107.2400 -60.9926
TCL: Running FEP window   5: Lambda1 0.7999999999999998 Lambda2 0.7499999999999998 [dLambda -0.050000000000000044]
TCL: Setting parameter firsttimestep to 0
TCL: Setting parameter alchLambda to 0.7999999999999998
Info: NONBONDED TABLE R-SQUARED SPACING: 0.0625
Info: NONBONDED TABLE SIZE: 705 POINTS
TCL: Setting parameter alchLambda2 to 0.7499999999999998
Info: NONBONDED TABLE R-SQUARED SPACING: 0.0625
Info: NONBONDED TABLE SIZE: 705 POINTS
TCL: Running for 1500000 steps
ETITLE: TS BOND ANGLE DIHED IMPRP ELECT VDW BOUNDARY MISC KINETIC TOTAL TEMP POTENTIAL TOTALAVG TEMPAVG PRESSURE GPRESSURE VOLUME PRESSAVG GPRESSAVG
ENERGY: 0 0.2948 2.2043 0.0000 0.0000 -10719.3268 1498.3248 0.0000 0.0000 1741.2216 -7477.2812 297.8829 -9218.5028 -7477.2812 297.8829 212.8264 284.5201 30958.3496 212.8264 284.5201
ENERGY: 300000 1.4536 0.7321 0.0000 0.0000 -10694.9993 1455.4532 0.0000 0.0000 1726.7106 -7510.6498 295.4004 -9237.3604 -7545.4525 294.7943 180.1894 228.7929 30332.9685 256.8070 319.5405
ENERGY: 600000 1.4609 3.1053 0.0000 0.0000 -10594.8396 1388.2409 0.0000 0.0000 1716.2367 -7485.7958 293.6086 -9202.0326 -7503.8756 297.4894 -283.4126 -282.5354 30579.1472 36.8060 78.2717
ENERGY: 900000 0.2641 0.9437 0.0000 0.0000 -10529.0514 1352.1400 0.0000 0.0000 1689.1028 -7486.6008 288.9666 -9175.7036 -7496.8545 296.9251 -770.9652 -708.6963 30861.3655 0.1131 47.9477
ENERGY: 1200000 1.5482 0.9334 0.0000 0.0000 -10752.7062 1524.0566 0.0000 0.0000 1766.4132 -7459.7548 302.1926 -9226.1680 -7481.8806 298.1298 678.2973 824.2259 30345.1796 82.5311 135.3291
ENERGY: 1500000 1.2058 0.7883 0.0000 0.0000 -10508.1271 1342.8654 0.0000 0.0000 1725.4280 -7437.8397 295.1810 -9163.2677 -7483.5574 299.0811 -573.4881 -498.8408 30449.3095 86.4886 139.1875
TCL: Running FEP window   6: Lambda1 0.7499999999999998 Lambda2 0.6999999999999997 [dLambda -0.050000000000000044]
TCL: Setting parameter firsttimestep to 0
TCL: Setting parameter alchLambda to 0.7499999999999998
Info: NONBONDED TABLE R-SQUARED SPACING: 0.0625
Info: NONBONDED TABLE SIZE: 705 POINTS
TCL: Setting parameter alchLambda2 to 0.6999999999999997
Info: NONBONDED TABLE R-SQUARED SPACING: 0.0625
Info: NONBONDED TABLE SIZE: 705 POINTS
TCL: Running for 1500000 steps
ETITLE: TS BOND ANGLE DIHED IMPRP ELECT VDW BOUNDARY MISC KINETIC TOTAL TEMP POTENTIAL TOTALAVG TEMPAVG PRESSURE GPRESSURE VOLUME PRESSAVG GPRESSAVG
ENERGY: 0 1.2058 0.7883 0.0000 0.0000 -10508.0712 1343.0242 0.0000 0.0000 1724.5718 -7438.4812 295.0345 -9163.0530 -7438.4812 295.0345 -585.2986 -505.3997 30449.3095 -585.2986 -505.3997
ENERGY: 300000 0.8824 1.4724 0.0000 0.0000 -10812.9738 1489.5562 0.0000 0.0000 1780.5333 -7540.5295 304.6082 -9321.0628 -7478.8824 300.2745 120.0942 207.7770 30439.8006 205.3055 261.8525
ENERGY: 600000 0.5230 1.5688 0.0000 0.0000 -10810.3241 1488.7341 0.0000 0.0000 1762.0508 -7557.4474 301.4463 -9319.4982 -7495.4203 301.0376 367.0501 481.2171 29794.1754 14.5220 81.4280
ENERGY: 900000 2.7610 1.3827 0.0000 0.0000 -10826.2833 1551.3051 0.0000 0.0000 1805.0851 -7465.7495 308.8085 -9270.8346 -7497.3933 301.6358 808.1786 906.3485 30183.6391 18.1261 84.0857
ENERGY: 1200000 2.2766 1.1614 0.0000 0.0000 -10572.9895 1419.4071 0.0000 0.0000 1675.1006 -7475.0439 286.5711 -9150.1444 -7487.6362 301.3048 -50.5891 31.7665 30481.9699 75.5096 141.0073
ENERGY: 1500000 0.9509 1.2790 0.0000 0.0000 -10650.0534 1437.9688 0.0000 0.0000 1735.8783 -7473.9764 296.9688 -9209.8547 -7483.3759 300.5622 -13.0443 28.5746 30637.2644 95.6462 161.8498
TCL: Running FEP window   7: Lambda1 0.6999999999999997 Lambda2 0.6499999999999997 [dLambda -0.050000000000000044]
TCL: Setting parameter firsttimestep to 0
TCL: Setting parameter alchLambda to 0.6999999999999997
Info: NONBONDED TABLE R-SQUARED SPACING: 0.0625
Info: NONBONDED TABLE SIZE: 705 POINTS
TCL: Setting parameter alchLambda2 to 0.6499999999999997
Info: NONBONDED TABLE R-SQUARED SPACING: 0.0625
Info: NONBONDED TABLE SIZE: 705 POINTS
TCL: Running for 1500000 steps
ETITLE: TS BOND ANGLE DIHED IMPRP ELECT VDW BOUNDARY MISC KINETIC TOTAL TEMP POTENTIAL TOTALAVG TEMPAVG PRESSURE GPRESSURE VOLUME PRESSAVG GPRESSAVG
ENERGY: 0 0.9509 1.2790 0.0000 0.0000 -10649.9985 1438.4438 0.0000 0.0000 1735.0358 -7474.2890 296.8247 -9209.3249 -7474.2890 296.8247 -50.9289 28.7114 30637.2644 -50.9289 28.7114
ENERGY: 300000 1.0902 1.8357 0.0000 0.0000 -10628.9960 1424.4054 0.0000 0.0000 1808.6210 -7393.0438 309.4134 -9201.6648 -7465.3411 302.2481 -46.9267 41.8064 30553.3031 162.3662 233.9339
ENERGY: 600000 0.2591 1.0575 0.0000 0.0000 -10487.9360 1335.3568 0.0000 0.0000 1763.3997 -7387.8629 301.6771 -9151.2626 -7460.1014 301.0134 -703.2960 -581.2106 30886.6570 -78.2371 -1.8553
ENERGY: 900000 0.6200 2.5129 0.0000 0.0000 -10752.0559 1541.7454 0.0000 0.0000 1769.7065 -7437.4711 302.7560 -9207.1776 -7455.3960 301.5130 1137.2274 1144.5010 30054.9056 115.5676 179.3892
ENERGY: 1200000 1.2130 1.1402 0.0000 0.0000 -10726.4278 1505.1977 0.0000 0.0000 1744.2721 -7474.6047 298.4048 -9218.8769 -7453.1695 300.6447 615.7201 658.9602 30045.8730 70.0552 132.6243
ENERGY: 1500000 1.1792 2.2059 0.0000 0.0000 -10603.5903 1393.5659 0.0000 0.0000 1741.3367 -7465.3026 297.9026 -9206.6394 -7458.7025 300.6093 -229.6612 -182.9311 30286.2237 62.6420 120.5371
TCL: Running FEP window   8: Lambda1 0.6499999999999997 Lambda2 0.5999999999999996 [dLambda -0.050000000000000044]
TCL: Setting parameter firsttimestep to 0
TCL: Setting parameter alchLambda to 0.6499999999999997
Info: NONBONDED TABLE R-SQUARED SPACING: 0.0625
Info: NONBONDED TABLE SIZE: 705 POINTS
TCL: Setting parameter alchLambda2 to 0.5999999999999996
Info: NONBONDED TABLE R-SQUARED SPACING: 0.0625
Info: NONBONDED TABLE SIZE: 705 POINTS
TCL: Running for 1500000 steps
ETITLE: TS BOND ANGLE DIHED IMPRP ELECT VDW BOUNDARY MISC KINETIC TOTAL TEMP POTENTIAL TOTALAVG TEMPAVG PRESSURE GPRESSURE VOLUME PRESSAVG GPRESSAVG
ENERGY: 0 1.1792 2.2059 0.0000 0.0000 -10603.6195 1393.0221 0.0000 0.0000 1740.4728 -7466.7396 297.7548 -9207.2124 -7466.7396 297.7548 -279.0002 -194.8732 30286.2237 -279.0002 -194.8732
ENERGY: 300000 1.4379 1.4189 0.0000 0.0000 -10889.1678 1603.4167 0.0000 0.0000 1764.6551 -7518.2391 301.8918 -9282.8942 -7472.4750 300.8938 1423.7750 1493.3432 30031.4860 120.9812 186.1598
ENERGY: 600000 0.3035 1.8943 0.0000 0.0000 -10759.3571 1479.1027 0.0000 0.0000 1763.9498 -7514.1068 301.7712 -9278.0566 -7487.5998 301.9901 454.4402 512.0728 29898.2119 276.2110 344.4131
ENERGY: 900000 2.4407 1.5815 0.0000 0.0000 -10675.0775 1383.5429 0.0000 0.0000 1707.3653 -7580.1472 292.0909 -9287.5124 -7488.6844 302.2153 -751.0632 -724.1354 30577.9014 86.3758 147.0116
ENERGY: 1200000 0.4287 1.4199 0.0000 0.0000 -10738.4877 1468.0112 0.0000 0.0000 1761.2396 -7507.3882 301.3075 -9268.6279 -7479.1459 302.7976 175.2735 209.5596 30451.3223 127.4215 185.5545
ENERGY: 1500000 1.3323 0.0979 0.0000 0.0000 -10624.7137 1341.3313 0.0000 0.0000 1813.6097 -7468.3424 310.2668 -9281.9521 -7478.3801 302.2974 -614.8898 -545.3413 29786.2522 57.8712 117.6068
TCL: Running FEP window   9: Lambda1 0.5999999999999996 Lambda2 0.5499999999999996 [dLambda -0.050000000000000044]
TCL: Setting parameter firsttimestep to 0
TCL: Setting parameter alchLambda to 0.5999999999999996
Info: NONBONDED TABLE R-SQUARED SPACING: 0.0625
Info: NONBONDED TABLE SIZE: 705 POINTS
TCL: Setting parameter alchLambda2 to 0.5499999999999996
Info: NONBONDED TABLE R-SQUARED SPACING: 0.0625
Info: NONBONDED TABLE SIZE: 705 POINTS
TCL: Running for 1500000 steps
ETITLE: TS BOND ANGLE DIHED IMPRP ELECT VDW BOUNDARY MISC KINETIC TOTAL TEMP POTENTIAL TOTALAVG TEMPAVG PRESSURE GPRESSURE VOLUME PRESSAVG GPRESSAVG
ENERGY: 0 1.3323 0.0979 0.0000 0.0000 -10624.6733 1341.1699 0.0000 0.0000 1812.7354 -7469.3378 310.1173 -9282.0731 -7469.3378 310.1173 -631.8445 -548.2874 29786.2522 -631.8445 -548.2874
ENERGY: 300000 1.3658 1.2267 0.0000 0.0000 -10784.9273 1528.6602 0.0000 0.0000 1740.2110 -7513.4635 297.7100 -9253.6745 -7460.6116 305.4789 749.7736 773.0264 30417.3161 -65.4335 4.9952
ENERGY: 600000 1.4301 1.5553 0.0000 0.0000 -10734.3056 1492.0083 0.0000 0.0000 1768.2609 -7471.0511 302.5087 -9239.3119 -7488.3619 303.3617 370.2409 460.3221 30321.6858 -63.5275 0.2202
ENERGY: 900000 0.1970 2.3897 0.0000 0.0000 -10688.6514 1455.6948 0.0000 0.0000 1756.9642 -7473.4057 300.5761 -9230.3699 -7485.9752 302.1074 191.0945 211.9069 30560.9757 90.6002 149.4104
ENERGY: 1200000 1.3081 0.3797 0.0000 0.0000 -10657.0331 1387.4976 0.0000 0.0000 1806.7198 -7461.1279 309.0881 -9267.8477 -7481.6606 301.7386 -471.1656 -325.1096 30259.5034 -30.7177 29.3881
ENERGY: 1500000 2.4503 0.8091 0.0000 0.0000 -10642.1359 1448.5967 0.0000 0.0000 1822.7993 -7367.4804 311.8390 -9190.2797 -7483.7630 301.6004 472.3366 508.7091 30007.3704 7.3439 70.7559
TCL: Running FEP window  10: Lambda1 0.5499999999999996 Lambda2 0.4999999999999996 [dLambda -0.04999999999999999]
TCL: Setting parameter firsttimestep to 0
TCL: Setting parameter alchLambda to 0.5499999999999996
Info: NONBONDED TABLE R-SQUARED SPACING: 0.0625
Info: NONBONDED TABLE SIZE: 705 POINTS
TCL: Setting parameter alchLambda2 to 0.4999999999999996
Info: NONBONDED TABLE R-SQUARED SPACING: 0.0625
Info: NONBONDED TABLE SIZE: 705 POINTS
TCL: Running for 1500000 steps
ETITLE: TS BOND ANGLE DIHED IMPRP ELECT VDW BOUNDARY MISC KINETIC TOTAL TEMP POTENTIAL TOTALAVG TEMPAVG PRESSURE GPRESSURE VOLUME PRESSAVG GPRESSAVG
ENERGY: 0 2.4503 0.8091 0.0000 0.0000 -10642.0681 1448.6512 0.0000 0.0000 1821.9157 -7368.2418 311.6878 -9190.1575 -7368.2418 311.6878 422.4238 504.4848 30007.3704 422.4238 504.4848
ENERGY: 300000 1.7445 0.8127 0.0000 0.0000 -10624.5741 1386.7611 0.0000 0.0000 1706.9283 -7528.3274 292.0161 -9235.2558 -7475.2120 296.6553 -293.3153 -227.0996 30067.7374 -63.5647 5.9552
ENERGY: 600000 0.2818 0.9656 0.0000 0.0000 -10651.7384 1443.3820 0.0000 0.0000 1739.1306 -7467.9784 297.5252 -9207.1090 -7476.8670 296.8052 130.6836 197.9288 30551.8393 -144.0961 -63.0279
ENERGY: 900000 2.4873 1.6365 0.0000 0.0000 -10651.6275 1376.5550 0.0000 0.0000 1750.5234 -7520.4253 299.4742 -9270.9488 -7486.7094 296.9707 -601.1745 -518.6910 30207.7188 -269.7052 -193.7477
ENERGY: 1200000 0.6292 1.8872 0.0000 0.0000 -10721.6282 1402.9872 0.0000 0.0000 1709.8155 -7606.3091 292.5100 -9316.1246 -7495.2744 297.0605 -484.5586 -356.3823 29994.5602 -217.5081 -140.5749
ENERGY: 1500000 0.5750 4.7784 0.0000 0.0000 -10737.3765 1451.8392 0.0000 0.0000 1774.7785 -7505.4055 303.6237 -9280.1840 -7498.7359 297.1985 269.6568 320.5289 29900.2785 -115.8526 -41.2498
TCL: Running FEP window  11: Lambda1 0.4999999999999996 Lambda2 0.4499999999999996 [dLambda -0.04999999999999999]
TCL: Setting parameter firsttimestep to 0
TCL: Setting parameter alchLambda to 0.4999999999999996
Info: NONBONDED TABLE R-SQUARED SPACING: 0.0625
Info: NONBONDED TABLE SIZE: 705 POINTS
TCL: Setting parameter alchLambda2 to 0.4499999999999996
Info: NONBONDED TABLE R-SQUARED SPACING: 0.0625
Info: NONBONDED TABLE SIZE: 705 POINTS
TCL: Running for 1500000 steps
ETITLE: TS BOND ANGLE DIHED IMPRP ELECT VDW BOUNDARY MISC KINETIC TOTAL TEMP POTENTIAL TOTALAVG TEMPAVG PRESSURE GPRESSURE VOLUME PRESSAVG GPRESSAVG
ENERGY: 0 0.5750 4.7784 0.0000 0.0000 -10737.3449 1451.7647 0.0000 0.0000 1773.9290 -7506.2978 303.4784 -9280.2268 -7506.2978 303.4784 222.9913 313.2985 29900.2785 222.9913 313.2985
ENERGY: 300000 0.5170 2.1891 0.0000 0.0000 -10826.8755 1565.0831 0.0000 0.0000 1712.4731 -7546.6132 292.9647 -9259.0863 -7507.2762 299.1802 932.0112 995.1695 30181.0738 255.8201 337.6361
ENERGY: 600000 0.8227 1.1443 0.0000 0.0000 -10746.8700 1493.0002 0.0000 0.0000 1747.5317 -7504.3711 298.9624 -9251.9029 -7496.3702 300.4839 92.7033 179.5366 30582.2915 194.4334 275.0328
ENERGY: 900000 1.2224 2.6488 0.0000 0.0000 -10602.7052 1383.3278 0.0000 0.0000 1737.2605 -7478.2457 297.2052 -9215.5062 -7486.3989 300.0597 -52.2399 -13.2520 29722.7396 141.4178 217.6714
ENERGY: 1200000 0.3739 1.2843 0.0000 0.0000 -10630.3564 1422.2611 0.0000 0.0000 1788.7585 -7417.6787 306.0154 -9206.4372 -7488.5184 299.8424 -75.6547 -61.8224 30406.4765 58.0752 131.4875
ENERGY: 1500000 1.2354 1.6786 0.0000 0.0000 -10632.1417 1431.1352 0.0000 0.0000 1723.7226 -7474.3697 294.8892 -9198.0924 -7481.2379 299.8050 -203.6537 -120.7483 30713.7346 9.9736 87.6722
TCL: Running FEP window  12: Lambda1 0.4499999999999996 Lambda2 0.39999999999999963 [dLambda -0.04999999999999999]
TCL: Setting parameter firsttimestep to 0
TCL: Setting parameter alchLambda to 0.4499999999999996
Info: NONBONDED TABLE R-SQUARED SPACING: 0.0625
Info: NONBONDED TABLE SIZE: 705 POINTS
TCL: Setting parameter alchLambda2 to 0.39999999999999963
Info: NONBONDED TABLE R-SQUARED SPACING: 0.0625
Info: NONBONDED TABLE SIZE: 705 POINTS
TCL: Running for 1500000 steps
ETITLE: TS BOND ANGLE DIHED IMPRP ELECT VDW BOUNDARY MISC KINETIC TOTAL TEMP POTENTIAL TOTALAVG TEMPAVG PRESSURE GPRESSURE VOLUME PRESSAVG GPRESSAVG
ENERGY: 0 1.2354 1.6786 0.0000 0.0000 -10632.1410 1431.4924 0.0000 0.0000 1722.8802 -7474.8544 294.7451 -9197.7346 -7474.8544 294.7451 -206.3918 -120.7864 30713.7346 -206.3918 -120.7864
ENERGY: 300000 0.3733 1.2678 0.0000 0.0000 -10622.1735 1414.8399 0.0000 0.0000 1780.7264 -7424.9661 304.6413 -9205.6925 -7484.1776 301.4014 -89.8111 -123.2567 30342.4333 -347.5100 -274.7842
ENERGY: 600000 2.6037 0.7419 0.0000 0.0000 -10684.3194 1456.6541 0.0000 0.0000 1808.1444 -7416.1752 309.3319 -9224.3196 -7467.3630 304.1313 360.8030 401.6119 30095.9826 -66.3903 -1.9311
ENERGY: 900000 1.0819 1.2416 0.0000 0.0000 -10761.6913 1473.6259 0.0000 0.0000 1741.3663 -7544.3756 297.9077 -9285.7419 -7459.8729 304.1697 385.0914 475.1666 29987.9727 17.8429 75.5466
ENERGY: 1200000 3.0248 0.3320 0.0000 0.0000 -10693.9396 1401.0109 0.0000 0.0000 1818.8447 -7470.7272 311.1624 -9289.5719 -7465.6920 304.4484 -542.1341 -434.8422 30242.4071 -104.1903 -48.7275
ENERGY: 1500000 1.3231 3.3517 0.0000 0.0000 -10733.0494 1417.6285 0.0000 0.0000 1754.8548 -7555.8913 300.2152 -9310.7461 -7476.4365 303.4102 -364.3679 -306.1018 30303.0068 -124.0900 -65.9225
TCL: Running FEP window  13: Lambda1 0.39999999999999963 Lambda2 0.34999999999999964 [dLambda -0.04999999999999999]
TCL: Setting parameter firsttimestep to 0
TCL: Setting parameter alchLambda to 0.39999999999999963
Info: NONBONDED TABLE R-SQUARED SPACING: 0.0625
Info: NONBONDED TABLE SIZE: 705 POINTS
TCL: Setting parameter alchLambda2 to 0.34999999999999964
Info: NONBONDED TABLE R-SQUARED SPACING: 0.0625
Info: NONBONDED TABLE SIZE: 705 POINTS
TCL: Running for 1500000 steps
ETITLE: TS BOND ANGLE DIHED IMPRP ELECT VDW BOUNDARY MISC KINETIC TOTAL TEMP POTENTIAL TOTALAVG TEMPAVG PRESSURE GPRESSURE VOLUME PRESSAVG GPRESSAVG
ENERGY: 0 1.3231 3.3517 0.0000 0.0000 -10733.0495 1418.0852 0.0000 0.0000 1754.0152 -7556.2743 300.0716 -9310.2895 -7556.2743 300.0716 -392.2146 -305.3034 30303.0068 -392.2146 -305.3034
ENERGY: 300000 0.9929 0.8202 0.0000 0.0000 -10701.5993 1403.3407 0.0000 0.0000 1762.0215 -7534.4239 301.4413 -9296.4454 -7474.7224 304.5209 -601.2615 -555.3804 30752.8045 -364.5904 -310.8263
ENERGY: 600000 1.5606 1.0296 0.0000 0.0000 -10714.7029 1480.5779 0.0000 0.0000 1758.8752 -7472.6596 300.9030 -9231.5347 -7490.0023 301.6020 694.6266 744.4357 29803.5684 -157.4268 -89.1501
ENERGY: 900000 1.2251 2.0276 0.0000 0.0000 -10757.7872 1468.5924 0.0000 0.0000 1719.1434 -7566.7987 294.1058 -9285.9421 -7470.8339 301.3946 94.9227 115.1300 30308.1655 -114.1897 -52.0454
ENERGY: 1200000 0.3554 0.2752 0.0000 0.0000 -10586.8201 1323.7405 0.0000 0.0000 1761.0658 -7501.3831 301.2778 -9262.4489 -7476.8451 301.5940 -846.4502 -782.1726 30115.7576 -164.5831 -103.5772
ENERGY: 1500000 0.6212 1.1430 0.0000 0.0000 -10635.2726 1417.2787 0.0000 0.0000 1764.6286 -7451.6011 301.8873 -9216.2297 -7475.9675 301.5782 113.0473 243.3385 29795.8369 -156.1029 -91.3999
TCL: Running FEP window  14: Lambda1 0.34999999999999964 Lambda2 0.29999999999999966 [dLambda -0.04999999999999999]
TCL: Setting parameter firsttimestep to 0
TCL: Setting parameter alchLambda to 0.34999999999999964
Info: NONBONDED TABLE R-SQUARED SPACING: 0.0625
Info: NONBONDED TABLE SIZE: 705 POINTS
TCL: Setting parameter alchLambda2 to 0.29999999999999966
Info: NONBONDED TABLE R-SQUARED SPACING: 0.0625
Info: NONBONDED TABLE SIZE: 705 POINTS
TCL: Running for 1500000 steps
ETITLE: TS BOND ANGLE DIHED IMPRP ELECT VDW BOUNDARY MISC KINETIC TOTAL TEMP POTENTIAL TOTALAVG TEMPAVG PRESSURE GPRESSURE VOLUME PRESSAVG GPRESSAVG
ENERGY: 0 0.6212 1.1430 0.0000 0.0000 -10635.2729 1417.1685 0.0000 0.0000 1763.7672 -7452.5730 301.7399 -9216.3403 -7452.5730 301.7399 149.2911 237.5750 29795.8369 149.2911 237.5750
ENERGY: 300000 1.0174 0.2413 0.0000 0.0000 -10587.1055 1340.9100 0.0000 0.0000 1753.7701 -7491.1667 300.0297 -9244.9368 -7518.0064 299.3751 -874.9827 -836.0316 30659.9522 -145.4494 -76.5256
ENERGY: 600000 1.2943 1.8222 0.0000 0.0000 -10787.4897 1468.6130 0.0000 0.0000 1740.2278 -7575.5323 297.7129 -9315.7601 -7516.6203 301.1716 174.4014 265.9388 29990.9550 -139.5781 -66.9824
ENERGY: 900000 3.5054 1.2893 0.0000 0.0000 -10721.9858 1456.0508 0.0000 0.0000 1726.8065 -7534.3338 295.4168 -9261.1403 -7509.2496 300.3309 -20.6066 64.7066 30383.1168 -127.0539 -42.8211
ENERGY: 1200000 0.3494 0.7339 0.0000 0.0000 -10697.7266 1460.2746 0.0000 0.0000 1724.6199 -7511.7488 295.0427 -9236.3687 -7514.7159 299.5231 81.1017 215.3750 30186.4650 -133.1888 -55.6408
ENERGY: 1500000 0.1807 3.0788 0.0000 0.0000 -10657.2958 1404.4930 0.0000 0.0000 1744.6776 -7504.8656 298.4742 -9249.5433 -7503.2412 299.8620 -220.6008 -202.9477 30213.3030 -186.2359 -117.6716
TCL: Running FEP window  15: Lambda1 0.29999999999999966 Lambda2 0.24999999999999967 [dLambda -0.04999999999999999]
TCL: Setting parameter firsttimestep to 0
TCL: Setting parameter alchLambda to 0.29999999999999966
Info: NONBONDED TABLE R-SQUARED SPACING: 0.0625
Info: NONBONDED TABLE SIZE: 705 POINTS
TCL: Setting parameter alchLambda2 to 0.24999999999999967
Info: NONBONDED TABLE R-SQUARED SPACING: 0.0625
Info: NONBONDED TABLE SIZE: 705 POINTS
TCL: Running for 1500000 steps
ETITLE: TS BOND ANGLE DIHED IMPRP ELECT VDW BOUNDARY MISC KINETIC TOTAL TEMP POTENTIAL TOTALAVG TEMPAVG PRESSURE GPRESSURE VOLUME PRESSAVG GPRESSAVG
ENERGY: 0 0.1807 3.0788 0.0000 0.0000 -10657.2947 1404.5302 0.0000 0.0000 1743.7926 -7505.7124 298.3227 -9249.5050 -7505.7124 298.3227 -280.3420 -206.3285 30213.3030 -280.3420 -206.3285
ENERGY: 300000 1.7565 1.3190 0.0000 0.0000 -10746.7151 1530.4419 0.0000 0.0000 1764.5820 -7448.6157 301.8793 -9213.1977 -7512.0879 298.6024 525.2108 552.9208 30780.1155 -105.8298 -55.4000
ENERGY: 600000 4.3633 2.9069 0.0000 0.0000 -10704.3864 1417.6904 0.0000 0.0000 1760.9772 -7518.4486 301.2626 -9279.4257 -7514.1412 297.3760 -299.1325 -227.2604 30254.2415 -142.9981 -82.3193
ENERGY: 900000 1.4030 0.7961 0.0000 0.0000 -10650.1401 1374.4735 0.0000 0.0000 1741.5039 -7531.9636 297.9312 -9273.4675 -7505.6883 296.8811 -652.2575 -553.8831 30437.8740 -334.9311 -270.7746
ENERGY: 1200000 0.3197 0.9352 0.0000 0.0000 -10790.4848 1489.8362 0.0000 0.0000 1745.0688 -7554.3249 298.5411 -9299.3937 -7507.6942 296.8837 196.5624 250.2045 30289.4993 -340.1751 -274.8325
ENERGY: 1500000 1.7757 1.0326 0.0000 0.0000 -10565.8311 1362.4027 0.0000 0.0000 1758.4322 -7442.1879 300.8272 -9200.6200 -7505.2150 297.3739 -134.1700 -152.6928 29786.6530 -246.3232 -189.5591
TCL: Running FEP window  16: Lambda1 0.24999999999999967 Lambda2 0.19999999999999968 [dLambda -0.04999999999999999]
TCL: Setting parameter firsttimestep to 0
TCL: Setting parameter alchLambda to 0.24999999999999967
Info: NONBONDED TABLE R-SQUARED SPACING: 0.0625
Info: NONBONDED TABLE SIZE: 705 POINTS
TCL: Setting parameter alchLambda2 to 0.19999999999999968
Info: NONBONDED TABLE R-SQUARED SPACING: 0.0625
Info: NONBONDED TABLE SIZE: 705 POINTS
TCL: Running for 1500000 steps
ETITLE: TS BOND ANGLE DIHED IMPRP ELECT VDW BOUNDARY MISC KINETIC TOTAL TEMP POTENTIAL TOTALAVG TEMPAVG PRESSURE GPRESSURE VOLUME PRESSAVG GPRESSAVG
ENERGY: 0 1.7757 1.0326 0.0000 0.0000 -10565.8316 1361.7915 0.0000 0.0000 1757.5680 -7443.6637 300.6794 -9201.2318 -7443.6637 300.6794 -234.4321 -156.5348 29786.6530 -234.4321 -156.5348
ENERGY: 300000 0.4525 0.2951 0.0000 0.0000 -10650.7703 1453.6826 0.0000 0.0000 1725.5501 -7470.7900 295.2019 -9196.3401 -7456.3542 299.3256 321.8399 367.9511 30058.7011 -58.0139 -4.9854
ENERGY: 600000 1.3727 2.1182 0.0000 0.0000 -10745.3139 1506.5369 0.0000 0.0000 1725.6803 -7509.6057 295.2242 -9235.2860 -7465.8923 297.2311 242.7517 322.6636 30437.1354 125.1616 182.4362
ENERGY: 900000 0.5000 0.5526 0.0000 0.0000 -10707.2560 1501.9624 0.0000 0.0000 1730.5151 -7473.7259 296.0513 -9204.2410 -7481.5683 297.2901 478.0764 546.1844 30550.6559 192.8467 256.4202
ENERGY: 1200000 1.7799 1.6808 0.0000 0.0000 -10799.0249 1541.7819 0.0000 0.0000 1733.6944 -7520.0878 296.5952 -9253.7822 -7485.6780 297.1910 789.3753 793.2235 30057.9350 242.7361 296.2957
ENERGY: 1500000 0.6934 2.4036 0.0000 0.0000 -10632.0094 1419.1220 0.0000 0.0000 1732.2623 -7477.5281 296.3502 -9209.7904 -7478.5676 298.3010 -264.5708 -263.7116 30809.2116 148.0410 201.0202
TCL: Running FEP window  17: Lambda1 0.19999999999999968 Lambda2 0.1499999999999997 [dLambda -0.04999999999999999]
TCL: Setting parameter firsttimestep to 0
TCL: Setting parameter alchLambda to 0.19999999999999968
Info: NONBONDED TABLE R-SQUARED SPACING: 0.0625
Info: NONBONDED TABLE SIZE: 705 POINTS
TCL: Setting parameter alchLambda2 to 0.1499999999999997
Info: NONBONDED TABLE R-SQUARED SPACING: 0.0625
Info: NONBONDED TABLE SIZE: 705 POINTS
TCL: Running for 1500000 steps
ETITLE: TS BOND ANGLE DIHED IMPRP ELECT VDW BOUNDARY MISC KINETIC TOTAL TEMP POTENTIAL TOTALAVG TEMPAVG PRESSURE GPRESSURE VOLUME PRESSAVG GPRESSAVG
ENERGY: 0 0.6934 2.4036 0.0000 0.0000 -10632.0107 1419.0992 0.0000 0.0000 1731.3892 -7478.4253 296.2008 -9209.8145 -7478.4253 296.2008 -339.7573 -265.0543 30809.2116 -339.7573 -265.0543
ENERGY: 300000 0.1525 0.1416 0.0000 0.0000 -10573.8794 1439.6777 0.0000 0.0000 1742.7576 -7391.1500 298.1457 -9133.9075 -7446.4470 300.1914 87.2270 154.2356 30693.0811 -169.9961 -108.0483
ENERGY: 600000 0.5164 2.2813 0.0000 0.0000 -10607.4081 1408.6163 0.0000 0.0000 1739.0348 -7456.9592 297.5088 -9195.9940 -7451.0016 300.0785 -111.5303 -60.0327 30278.3889 -11.8837 55.3010
ENERGY: 900000 0.7921 3.2415 0.0000 0.0000 -10839.6484 1461.5027 0.0000 0.0000 1724.2805 -7649.8316 294.9847 -9374.1121 -7475.3372 299.0783 49.4079 88.2839 29755.2917 91.0702 161.7853
ENERGY: 1200000 3.1495 1.0238 0.0000 0.0000 -10711.4377 1412.6895 0.0000 0.0000 1753.8236 -7540.7514 300.0388 -9294.5749 -7486.8767 298.5887 -462.2431 -428.8685 30259.6910 46.6197 109.6811
ENERGY: 1500000 1.0145 1.1280 0.0000 0.0000 -10568.0102 1383.4070 0.0000 0.0000 1763.9156 -7418.5452 301.7653 -9182.4608 -7487.2687 298.4555 -279.0525 -233.4809 30356.4373 45.0981 103.5291
TCL: Running FEP window  18: Lambda1 0.1499999999999997 Lambda2 0.09999999999999969 [dLambda -0.05 ]
TCL: Setting parameter firsttimestep to 0
TCL: Setting parameter alchLambda to 0.1499999999999997
Info: NONBONDED TABLE R-SQUARED SPACING: 0.0625
Info: NONBONDED TABLE SIZE: 705 POINTS
TCL: Setting parameter alchLambda2 to 0.09999999999999969
Info: NONBONDED TABLE R-SQUARED SPACING: 0.0625
Info: NONBONDED TABLE SIZE: 705 POINTS
TCL: Running for 1500000 steps
ETITLE: TS BOND ANGLE DIHED IMPRP ELECT VDW BOUNDARY MISC KINETIC TOTAL TEMP POTENTIAL TOTALAVG TEMPAVG PRESSURE GPRESSURE VOLUME PRESSAVG GPRESSAVG
ENERGY: 0 1.0145 1.1280 0.0000 0.0000 -10568.0109 1382.4693 0.0000 0.0000 1763.0321 -7420.3671 301.6142 -9183.3992 -7420.3671 301.6142 -318.4424 -241.8465 30356.4373 -318.4424 -241.8465
ENERGY: 300000 1.1085 1.4558 0.0000 0.0000 -10775.6502 1493.9543 0.0000 0.0000 1716.5137 -7562.6180 293.6559 -9279.1317 -7516.0546 295.7372 631.7551 664.6507 29516.9696 53.1716 88.9564
ENERGY: 600000 0.6848 3.4936 0.0000 0.0000 -10810.2374 1498.1630 0.0000 0.0000 1782.0728 -7525.8232 304.8716 -9307.8960 -7495.7465 299.3194 63.8587 43.6857 30733.2656 -63.9735 -35.8581
ENERGY: 900000 0.6061 0.5681 0.0000 0.0000 -10736.1224 1494.7642 0.0000 0.0000 1747.0520 -7493.1319 298.8804 -9240.1840 -7507.0399 298.1143 210.1500 363.9367 30205.0257 -74.1652 -23.3680
ENERGY: 1200000 1.1443 1.0738 0.0000 0.0000 -10925.4142 1573.9423 0.0000 0.0000 1703.6450 -7645.6089 291.4544 -9349.2538 -7526.8803 296.3000 1069.3924 1103.3662 29563.6834 26.4885 75.6331
ENERGY: 1500000 0.5309 0.8701 0.0000 0.0000 -10656.5376 1411.7001 0.0000 0.0000 1808.4954 -7434.9413 309.3919 -9243.4366 -7513.9775 297.5849 -55.0254 -32.1418 30274.1142 33.0777 82.1764
TCL: Running FEP window  19: Lambda1 0.09999999999999969 Lambda2 0.049999999999999684 [dLambda -0.05 ]
TCL: Setting parameter firsttimestep to 0
TCL: Setting parameter alchLambda to 0.09999999999999969
Info: NONBONDED TABLE R-SQUARED SPACING: 0.0625
Info: NONBONDED TABLE SIZE: 705 POINTS
TCL: Setting parameter alchLambda2 to 0.049999999999999684
Info: NONBONDED TABLE R-SQUARED SPACING: 0.0625
Info: NONBONDED TABLE SIZE: 705 POINTS
TCL: Running for 1500000 steps
ETITLE: TS BOND ANGLE DIHED IMPRP ELECT VDW BOUNDARY MISC KINETIC TOTAL TEMP POTENTIAL TOTALAVG TEMPAVG PRESSURE GPRESSURE VOLUME PRESSAVG GPRESSAVG
ENERGY: 0 0.5309 0.8701 0.0000 0.0000 -10656.5373 1411.8371 0.0000 0.0000 1807.5949 -7435.7044 309.2378 -9243.2993 -7435.7044 309.2378 -113.9757 -34.1102 30274.1142 -113.9757 -34.1102
ENERGY: 300000 1.3930 0.7468 0.0000 0.0000 -10635.4244 1433.9167 0.0000 0.0000 1716.9915 -7482.3765 293.7377 -9199.3679 -7475.5497 302.1959 -205.0855 -156.2299 30429.4396 166.9636 215.0547
ENERGY: 600000 0.7637 1.9660 0.0000 0.0000 -10671.8108 1420.8965 0.0000 0.0000 1794.2066 -7453.9780 306.9474 -9248.1846 -7478.7433 301.7571 -72.8584 -54.9265 30213.8753 213.6517 255.5533
ENERGY: 900000 0.1187 1.7824 0.0000 0.0000 -10764.2682 1543.1523 0.0000 0.0000 1717.0127 -7502.2022 293.7413 -9219.2148 -7471.5714 300.8708 557.4080 664.2603 30427.3190 183.5710 227.8432
ENERGY: 1200000 0.6991 1.9391 0.0000 0.0000 -10608.3272 1357.5054 0.0000 0.0000 1779.0288 -7469.1547 304.3508 -9248.1835 -7475.7193 300.4947 -489.8224 -428.6841 30090.9656 83.5927 131.5217
ENERGY: 1500000 0.7737 0.7390 0.0000 0.0000 -10803.1926 1466.8520 0.0000 0.0000 1791.1848 -7543.6430 306.4305 -9334.8278 -7487.0103 299.9384 272.6403 314.0525 29798.0477 86.1637 126.2389
TCL: Running FEP window  20: Lambda1 0.049999999999999684 Lambda2 0.0    [dLambda -0.049999999999999684]
TCL: Setting parameter firsttimestep to 0
TCL: Setting parameter alchLambda to 0.049999999999999684
Info: NONBONDED TABLE R-SQUARED SPACING: 0.0625
Info: NONBONDED TABLE SIZE: 705 POINTS
TCL: Setting parameter alchLambda2 to 0.0
Info: NONBONDED TABLE R-SQUARED SPACING: 0.0625
Info: NONBONDED TABLE SIZE: 705 POINTS
TCL: Running for 1500000 steps
ETITLE: TS BOND ANGLE DIHED IMPRP ELECT VDW BOUNDARY MISC KINETIC TOTAL TEMP POTENTIAL TOTALAVG TEMPAVG PRESSURE GPRESSURE VOLUME PRESSAVG GPRESSAVG
ENERGY: 0 0.7737 0.7390 0.0000 0.0000 -10803.1912 1466.7228 0.0000 0.0000 1790.2886 -7544.6671 306.2771 -9334.9557 -7544.6671 306.2771 222.4886 309.6836 29798.0477 222.4886 309.6836
ENERGY: 300000 1.5525 1.0448 0.0000 0.0000 -10693.3807 1426.5608 0.0000 0.0000 1763.5131 -7500.7095 301.6965 -9264.2226 -7475.0950 304.8446 -221.3985 -174.8579 30319.4413 74.9541 136.3930
ENERGY: 600000 0.5464 3.7358 0.0000 0.0000 -10640.0721 1416.8968 0.0000 0.0000 1755.4476 -7463.4454 300.3167 -9218.8931 -7486.2758 302.0883 -266.8107 -190.5151 30580.5410 -28.7102 30.0868
ENERGY: 900000 1.1126 1.1891 0.0000 0.0000 -10475.0562 1343.8821 0.0000 0.0000 1760.5155 -7368.3569 301.1836 -9128.8724 -7469.6957 302.0940 -496.2215 -391.8059 30289.5540 -172.7224 -105.4133
ENERGY: 1200000 1.1056 2.3001 0.0000 0.0000 -10521.8262 1314.3885 0.0000 0.0000 1792.4347 -7411.5972 306.6443 -9204.0320 -7465.3752 302.6128 -1072.9384 -1043.4261 30685.9257 -235.1918 -174.4804
ENERGY: 1500000 2.8199 1.6684 0.0000 0.0000 -10516.7082 1369.6581 0.0000 0.0000 1733.7607 -7408.8012 296.6065 -9142.5619 -7457.4872 302.2581 -494.1159 -471.6761 30374.7123 -225.1979 -162.9460
TCL: Exiting due to exit command.
