Info: SIMULATION PARAMETERS:
Info: TIMESTEP               2
Info: NUMBER OF STEPS        0
Info: STEPS PER CYCLE        10
Info: PERIODIC CELL BASIS 1  33.0562 0 0
Info: PERIODIC CELL BASIS 2  0 31.654 0
Info: PERIODIC CELL BASIS 3  0 0 29.1338
Info: PERIODIC CELL CENTER   0 0 0
Info: WRAPPING WATERS AROUND PERIODIC BOUNDARIES ON OUTPUT.
Info: WRAPPING ALL CLUSTERS AROUND PERIODIC BOUNDARIES ON OUTPUT.
Info: FIRST LDB TIMESTEP     50
Info: LAST LDB TIMESTEP     -1
Info: HOM BACKGROUND SCALING 1
Info: PME BACKGROUND SCALING 1
Info: MIN ATOMS PER PATCH    40
Info: EMPTY PATCH LOAD       40 ATOMS
Info: VELOCITY FILE          mobley_5857_equil.vel
Info: CENTER OF MASS MOVING INITIALLY? NO
Info: DIELECTRIC             1
Info: EXCLUDE                SCALED ONE-FOUR
Info: 1-4 ELECTROSTATICS SCALED BY 0.833333
Info: MODIFIED 1-4 VDW PARAMETERS WILL BE USED
Info: DCD FILENAME           mobley_5857_prod.dcd
Info: DCD FREQUENCY          100000
Info: DCD FIRST STEP         100000
Info: DCD FILE WILL CONTAIN UNIT CELL DATA
Info: XST FILENAME           mobley_5857_prod.xst
Info: XST FREQUENCY          100000
Info: NO VELOCITY DCD OUTPUT
Info: NO FORCE DCD OUTPUT
Info: OUTPUT FILENAME        mobley_5857_prod
Info: BINARY OUTPUT FILES WILL BE USED
Info: RESTART FILENAME       mobley_5857_prod.restart
Info: RESTART FREQUENCY      100000
Info: BINARY RESTART FILES WILL BE USED
Info: CUTOFF                 9
Info: PAIRLIST DISTANCE      11
Info: PAIRLIST SHRINK RATE   0.01
Info: PAIRLIST GROW RATE     0.01
Info: PAIRLIST TRIGGER       0.3
Info: PAIRLISTS PER CYCLE    2
Info: PAIRLISTS ENABLED
Info: MARGIN                 2
Info: HYDROGEN GROUP CUTOFF  2.5
Info: PATCH DIMENSION        15.5
Info: ENERGY OUTPUT STEPS    100000
Info: ENERGY EVALUATION STEPS    100000
Info: OUTPUT ENERGY PRECISION 4
Info: CROSSTERM ENERGY INCLUDED IN DIHEDRAL
Info: TIMING OUTPUT STEPS    1000000
Info: PRESSURE OUTPUT STEPS  100000
Info: ALCHEMICAL FEP ON
Info: FEP CURRENT LAMBDA VALUE     1
Info: FEP COMPARISON LAMBDA VALUE  0.95
Info: FEP INTRA-ALCHEMICAL NON-BONDED INTERACTIONS WILL BE RETAINED
Info: FEP INTRA-ALCHEMICAL BONDED INTERACTIONS WILL BE RETAINED
Info: FEP VDW SHIFTING COEFFICIENT 5
Info: FEP ELEC. ACTIVE FOR ANNIHILATED PARTICLES BETWEEN LAMBDA = 0 AND LAMBDA = 0.5
Info: FEP ELEC. ACTIVE FOR EXNIHILATED PARTICLES BETWEEN LAMBDA = 0.5 AND LAMBDA = 1
Info: FEP VDW ACTIVE FOR ANNIHILATED PARTICLES BETWEEN LAMBDA = 0 AND LAMBDA = 1
Info: FEP VDW ACTIVE FOR EXNIHILATED PARTICLES BETWEEN LAMBDA = 0 AND LAMBDA = 1
Info: FEP BOND ACTIVE FOR ANNIHILATED PARTICLES BETWEEN LAMBDA = 1 AND LAMBDA = 1
Info: FEP BOND ACTIVE FOR EXNIHILATED PARTICLES BETWEEN LAMBDA = 0 AND LAMBDA = 0
Info: LANGEVIN DYNAMICS ACTIVE
Info: LANGEVIN TEMPERATURE   300
Info: LANGEVIN USING BBK INTEGRATOR
Info: LANGEVIN DAMPING COEFFICIENT IS 1 INVERSE PS
Info: LANGEVIN DYNAMICS APPLIED TO HYDROGENS
Info: LANGEVIN PISTON PRESSURE CONTROL ACTIVE
Info:        TARGET PRESSURE IS 1.01325 BAR
Info:     OSCILLATION PERIOD IS 50 FS
Info:             DECAY TIME IS 25 FS
Info:     PISTON TEMPERATURE IS 300 K
Info:       PRESSURE CONTROL IS GROUP-BASED
Info:    INITIAL STRAIN RATE IS 0.00039298 0.00039298 0.00039298
Info:       CELL FLUCTUATION IS ISOTROPIC
Info: PARTICLE MESH EWALD (PME) ACTIVE
Info: PME TOLERANCE               1e-06
Info: PME EWALD COEFFICIENT       0.348832
Info: PME INTERPOLATION ORDER     4
Info: PME GRID DIMENSIONS         36 32 32
Info: PME MAXIMUM GRID SPACING    1
Info: PME CALCULATION WILL BE PERFORMED ON GPU
Info: FULL ELECTROSTATIC EVALUATION FREQUENCY      2
Info: USING VERLET I (r-RESPA) MTS SCHEME.
Info: C1 SPLITTING OF LONG RANGE ELECTROSTATICS
Info: PLACING ATOMS IN PATCHES BY HYDROGEN GROUPS
Info: RIGID BONDS TO HYDROGEN : ALL
Info:         ERROR TOLERANCE : 1e-08
Info:          MAX ITERATIONS : 100
Info: RIGID WATER USING SETTLE ALGORITHM
Info: RANDOM NUMBER SEED     1742381553
Info: USE HYDROGEN BONDS?    NO
Info: Using AMBER format force field!
Info: AMBER PARM FILE        mobley_5857.prmtop
Info: COORDINATE PDB         mobley_5857.pdb
Info: Exclusions will be read from PARM file!
Info: SCNB (VDW SCALING)     2
Info: USING ARITHMETIC MEAN TO COMBINE L-J SIGMA PARAMETERS
Info: BINARY COORDINATES     mobley_5857_equil.coor
Info: SUMMARY OF PARAMETERS:
Info: 6 BONDS
Info: 6 ANGLES
Info:   6 HARMONIC
Info:   0 COSINE-BASED
Info: 3 DIHEDRAL
Info: 0 IMPROPER
Info: 0 CROSSTERM
Info: 0 VDW
Info: 21 VDW_PAIRS
Info: 0 NBTHOLE_PAIRS
Info: To read alchdata from file: mobley_5857.pdb
Info: To read alchflag data from column: 5
Info: STRUCTURE SUMMARY:
Info: 2993 ATOMS
Info: 2994 BONDS
Info: 28 ANGLES
Info: 46 DIHEDRALS
Info: 0 IMPROPERS
Info: 0 CROSSTERMS
Info: 3056 EXCLUSIONS
Info: 2983 RIGID BONDS
Info: ALCH: 0 ATOMS TO DISAPPEAR IN FINAL STATE
Info: ALCH: 17 ATOMS TO APPEAR IN FINAL STATE
Info: 5996 DEGREES OF FREEDOM
Info: 1002 HYDROGEN GROUPS
Info: 3 ATOMS IN LARGEST HYDROGEN GROUP
Info: 1002 MIGRATION GROUPS
Info: 3 ATOMS IN LARGEST MIGRATION GROUP
Info: TOTAL MASS = 18001 amu
Info: TOTAL CHARGE = 0.000100004 e
Info: MASS DENSITY = 0.980566 g/cm^3
Info: ATOM DENSITY = 0.0981809 atoms/A^3
Info: ADDED 0 IMPLICIT EXCLUSIONS
Info: NONBONDED TABLE R-SQUARED SPACING: 0.0625
Info: NONBONDED TABLE SIZE: 705 POINTS
Info: REMOVING COM VELOCITY -0.225056 -0.111036 -0.160648
Info: Use 3D box decompostion in PME FFT.
Info: Updated CUDA force table with 4096 elements.
Info: Updated CUDA LJ table with 6 x 6 elements.
Info: Found 18 unique exclusion lists needing 44 bytes
TCL: Running for 1500000 steps
ETITLE: TS BOND ANGLE DIHED IMPRP ELECT VDW BOUNDARY MISC KINETIC TOTAL TEMP POTENTIAL TOTALAVG TEMPAVG PRESSURE GPRESSURE VOLUME PRESSAVG GPRESSAVG
ENERGY: 0 3.4491 2.6735 4.7068 0.0000 -10942.2297 1498.9605 0.0000 0.0000 1704.1331 -7728.3068 286.0436 -9432.4399 -7728.3068 286.0436 282.1062 363.7642 30484.5421 282.1062 363.7642
ENERGY: 300000 3.4415 3.9844 3.4238 0.0000 -10880.9765 1481.2057 0.0000 0.0000 1798.3128 -7590.6083 301.8520 -9388.9211 -7671.1873 296.0319 355.4402 375.8232 30490.4448 288.5411 324.5128
ENERGY: 600000 3.4164 9.5014 3.6989 0.0000 -10651.5476 1363.7696 0.0000 0.0000 1806.6004 -7464.5610 303.2431 -9271.1614 -7639.8018 296.8292 -651.7297 -541.0850 31548.5685 117.8803 176.9238
ENERGY: 900000 4.4807 4.1191 3.3271 0.0000 -11048.8934 1575.5170 0.0000 0.0000 1754.7878 -7706.6616 294.5462 -9461.4495 -7639.0675 296.6841 896.1943 989.8089 30299.9503 187.4629 245.7796
ENERGY: 1200000 4.4535 3.1133 4.1543 0.0000 -10746.1247 1406.1806 0.0000 0.0000 1750.9378 -7577.2851 293.8999 -9328.2229 -7626.8079 297.4464 -306.7732 -158.0568 30825.5340 171.8061 235.2572
ENERGY: 1500000 5.7487 8.1988 3.8529 0.0000 -10870.0481 1399.2097 0.0000 0.0000 1802.7234 -7650.3146 302.5923 -9453.0380 -7625.4101 297.4901 -609.6077 -584.7525 30739.8999 176.2684 237.3780
TCL: Running FEP window   2: Lambda1 0.95   Lambda2 0.8999999999999999 [dLambda -0.050000000000000044]
TCL: Setting parameter firsttimestep to 0
TCL: Setting parameter alchLambda to 0.95
Info: NONBONDED TABLE R-SQUARED SPACING: 0.0625
Info: NONBONDED TABLE SIZE: 705 POINTS
TCL: Setting parameter alchLambda2 to 0.8999999999999999
Info: NONBONDED TABLE R-SQUARED SPACING: 0.0625
Info: NONBONDED TABLE SIZE: 705 POINTS
TCL: Running for 1500000 steps
ETITLE: TS BOND ANGLE DIHED IMPRP ELECT VDW BOUNDARY MISC KINETIC TOTAL TEMP POTENTIAL TOTALAVG TEMPAVG PRESSURE GPRESSURE VOLUME PRESSAVG GPRESSAVG
ENERGY: 0 5.7487 8.1988 3.8529 0.0000 -10868.5176 1399.4600 0.0000 0.0000 1801.8364 -7649.4207 302.4434 -9451.2572 -7649.4207 302.4434 -679.3816 -592.6646 30739.8999 -679.3816 -592.6646
ENERGY: 300000 2.5654 7.4764 1.6887 0.0000 -10951.9618 1491.8937 0.0000 0.0000 1880.7699 -7567.5678 315.6926 -9448.3377 -7598.0211 303.8734 279.5557 376.2184 30790.5246 -150.4959 -60.8953
ENERGY: 600000 2.2312 6.7879 2.0669 0.0000 -10859.1336 1458.1497 0.0000 0.0000 1766.5452 -7623.3527 296.5197 -9389.8979 -7596.2349 301.5370 105.1603 177.1493 30650.0616 -117.5362 -36.9088
ENERGY: 900000 4.2264 4.9408 3.9873 0.0000 -10789.8404 1391.6040 0.0000 0.0000 1750.6463 -7634.4356 293.8510 -9385.0819 -7600.9321 300.1864 -619.0207 -537.2198 31022.6210 -166.9277 -92.4243
ENERGY: 1200000 4.6943 4.1815 3.9838 0.0000 -10770.0031 1396.8202 0.0000 0.0000 1797.7401 -7562.5833 301.7558 -9360.3234 -7598.1983 299.7337 -616.9343 -557.1079 31409.9267 -161.9077 -92.2931
ENERGY: 1500000 4.1269 5.6429 1.8563 0.0000 -10854.7084 1415.4174 0.0000 0.0000 1794.1132 -7633.5516 301.1470 -9427.6649 -7593.5131 300.5088 -706.2136 -668.4867 31038.1819 -233.5032 -164.3622
TCL: Running FEP window   3: Lambda1 0.8999999999999999 Lambda2 0.8499999999999999 [dLambda -0.050000000000000044]
TCL: Setting parameter firsttimestep to 0
TCL: Setting parameter alchLambda to 0.8999999999999999
Info: NONBONDED TABLE R-SQUARED SPACING: 0.0625
Info: NONBONDED TABLE SIZE: 705 POINTS
TCL: Setting parameter alchLambda2 to 0.8499999999999999
Info: NONBONDED TABLE R-SQUARED SPACING: 0.0625
Info: NONBONDED TABLE SIZE: 705 POINTS
TCL: Running for 1500000 steps
ETITLE: TS BOND ANGLE DIHED IMPRP ELECT VDW BOUNDARY MISC KINETIC TOTAL TEMP POTENTIAL TOTALAVG TEMPAVG PRESSURE GPRESSURE VOLUME PRESSAVG GPRESSAVG
ENERGY: 0 4.1270 5.6430 1.8563 0.0000 -10853.5864 1415.7733 0.0000 0.0000 1793.2146 -7632.9723 300.9962 -9426.1869 -7632.9723 300.9962 -766.0722 -675.0743 31038.1819 -766.0722 -675.0743
ENERGY: 300000 1.7380 3.7162 4.7014 0.0000 -10750.8336 1377.8727 0.0000 0.0000 1771.4818 -7591.3235 297.3483 -9362.8053 -7650.8785 298.1488 -505.3772 -529.7125 31033.1571 -404.0492 -351.4097
ENERGY: 600000 3.5495 6.4751 6.9468 0.0000 -10820.2779 1403.5747 0.0000 0.0000 1784.0921 -7615.6396 299.4650 -9399.7318 -7642.2440 297.7747 -589.2818 -538.6427 30780.2155 -171.2728 -120.4557
ENERGY: 900000 2.1456 4.4689 1.7464 0.0000 -10824.9368 1470.4206 0.0000 0.0000 1753.5509 -7592.6045 294.3385 -9346.1554 -7623.9025 298.7106 399.6274 388.2490 30746.8549 -89.1392 -32.2719
ENERGY: 1200000 7.7383 5.8485 7.0206 0.0000 -11056.6629 1567.3632 0.0000 0.0000 1818.1483 -7650.5440 305.1814 -9468.6923 -7627.8264 299.6297 301.3003 378.7428 31230.4131 51.8121 108.4085
ENERGY: 1500000 3.5589 5.3595 8.6003 0.0000 -10809.7443 1473.6812 0.0000 0.0000 1802.3273 -7516.2172 302.5258 -9318.5444 -7613.7216 299.9278 -28.3998 -17.8663 31350.3576 4.9339 59.3585
TCL: Running FEP window   4: Lambda1 0.8499999999999999 Lambda2 0.7999999999999998 [dLambda -0.050000000000000044]
TCL: Setting parameter firsttimestep to 0
TCL: Setting parameter alchLambda to 0.8499999999999999
Info: NONBONDED TABLE R-SQUARED SPACING: 0.0625
Info: NONBONDED TABLE SIZE: 705 POINTS
TCL: Setting parameter alchLambda2 to 0.7999999999999998
Info: NONBONDED TABLE R-SQUARED SPACING: 0.0625
Info: NONBONDED TABLE SIZE: 705 POINTS
TCL: Running for 1500000 steps
ETITLE: TS BOND ANGLE DIHED IMPRP ELECT VDW BOUNDARY MISC KINETIC TOTAL TEMP POTENTIAL TOTALAVG TEMPAVG PRESSURE GPRESSURE VOLUME PRESSAVG GPRESSAVG
ENERGY: 0 3.5589 5.3595 8.6003 0.0000 -10808.8592 1473.1382 0.0000 0.0000 1801.4753 -7516.7270 302.3828 -9318.2023 -7516.7270 302.3828 -115.6564 -35.6794 31350.3576 -115.6564 -35.6794
ENERGY: 300000 3.6504 3.7903 5.2172 0.0000 -10767.4172 1417.5858 0.0000 0.0000 1758.9276 -7578.2458 295.2410 -9337.1735 -7564.4223 300.0082 -301.3370 -274.7250 31078.4347 -4.9964 59.8398
ENERGY: 600000 3.9633 3.2366 5.0702 0.0000 -10791.7949 1392.3696 0.0000 0.0000 1813.4522 -7573.7030 304.3931 -9387.1552 -7572.9920 301.6232 -551.8459 -513.3400 31105.6669 -173.4775 -102.0892
ENERGY: 900000 4.8654 6.5213 1.8303 0.0000 -10864.7011 1476.1711 0.0000 0.0000 1765.5226 -7609.7904 296.3480 -9375.3129 -7578.7521 301.0019 -126.4434 -65.2864 31058.4015 -6.0453 74.5598
ENERGY: 1200000 2.3546 3.0813 8.0933 0.0000 -10966.0913 1517.5866 0.0000 0.0000 1821.5292 -7613.4464 305.7489 -9434.9756 -7587.6585 300.8733 462.7061 464.8954 30720.1406 5.1089 75.8134
ENERGY: 1500000 4.0957 6.4856 6.3734 0.0000 -10700.2617 1407.9586 0.0000 0.0000 1749.7289 -7525.6195 293.6970 -9275.3484 -7585.9240 300.6675 -334.0570 -307.1356 31380.2737 -40.3628 28.3228
TCL: Running FEP window   5: Lambda1 0.7999999999999998 Lambda2 0.7499999999999998 [dLambda -0.050000000000000044]
TCL: Setting parameter firsttimestep to 0
TCL: Setting parameter alchLambda to 0.7999999999999998
Info: NONBONDED TABLE R-SQUARED SPACING: 0.0625
Info: NONBONDED TABLE SIZE: 705 POINTS
TCL: Setting parameter alchLambda2 to 0.7499999999999998
Info: NONBONDED TABLE R-SQUARED SPACING: 0.0625
Info: NONBONDED TABLE SIZE: 705 POINTS
TCL: Running for 1500000 steps
ETITLE: TS BOND ANGLE DIHED IMPRP ELECT VDW BOUNDARY MISC KINETIC TOTAL TEMP POTENTIAL TOTALAVG TEMPAVG PRESSURE GPRESSURE VOLUME PRESSAVG GPRESSAVG
ENERGY: 0 4.0957 6.4856 6.3734 0.0000 -10699.2130 1408.2795 0.0000 0.0000 1748.8185 -7525.1603 293.5442 -9273.9787 -7525.1603 293.5442 -388.3882 -310.4744 31380.2737 -388.3882 -310.4744
ENERGY: 300000 4.7947 3.4652 2.7087 0.0000 -10880.4842 1461.8867 0.0000 0.0000 1809.3287 -7598.3002 303.7010 -9407.6289 -7572.8228 299.4278 -231.7374 -170.1610 31154.7221 -116.9585 -66.6436
ENERGY: 600000 6.6373 3.3761 2.5882 0.0000 -10903.1361 1495.3553 0.0000 0.0000 1753.6956 -7641.4835 294.3628 -9395.1791 -7588.7708 298.6576 -22.9894 43.2811 30853.9374 92.5519 130.8267
ENERGY: 900000 2.0504 4.9212 3.8583 0.0000 -10794.8606 1431.1936 0.0000 0.0000 1772.7267 -7580.1104 297.5573 -9352.8371 -7583.3462 299.4053 -226.3615 -166.4434 31065.6338 83.7432 136.7478
ENERGY: 1200000 2.4864 8.5502 2.1805 0.0000 -10891.2428 1466.5208 0.0000 0.0000 1811.2316 -7600.2732 304.0204 -9411.5049 -7589.4419 299.9981 65.5504 153.1508 30640.4632 -63.6235 -9.7529
ENERGY: 1500000 3.0508 3.4328 3.5553 0.0000 -10925.7740 1477.5551 0.0000 0.0000 1783.3415 -7654.8383 299.3390 -9438.1798 -7592.4930 299.7244 -124.0035 -98.7061 30943.5000 -99.8032 -39.5167
TCL: Running FEP window   6: Lambda1 0.7499999999999998 Lambda2 0.6999999999999997 [dLambda -0.050000000000000044]
TCL: Setting parameter firsttimestep to 0
TCL: Setting parameter alchLambda to 0.7499999999999998
Info: NONBONDED TABLE R-SQUARED SPACING: 0.0625
Info: NONBONDED TABLE SIZE: 705 POINTS
TCL: Setting parameter alchLambda2 to 0.6999999999999997
Info: NONBONDED TABLE R-SQUARED SPACING: 0.0625
Info: NONBONDED TABLE SIZE: 705 POINTS
TCL: Running for 1500000 steps
ETITLE: TS BOND ANGLE DIHED IMPRP ELECT VDW BOUNDARY MISC KINETIC TOTAL TEMP POTENTIAL TOTALAVG TEMPAVG PRESSURE GPRESSURE VOLUME PRESSAVG GPRESSAVG
ENERGY: 0 3.0508 3.4328 3.5553 0.0000 -10924.3160 1477.7160 0.0000 0.0000 1782.4724 -7654.0886 299.1931 -9436.5610 -7654.0886 299.1931 -194.2779 -103.2677 30943.5000 -194.2779 -103.2677
ENERGY: 300000 3.7650 3.9549 4.5489 0.0000 -10763.1050 1366.5028 0.0000 0.0000 1789.6908 -7594.6426 300.4047 -9384.3334 -7581.6354 298.7516 -703.3663 -636.8049 30796.5545 -360.7601 -273.8009
ENERGY: 600000 3.8057 8.4857 3.5947 0.0000 -10845.8962 1455.8724 0.0000 0.0000 1794.1008 -7580.0370 301.1450 -9374.1378 -7587.5678 300.3068 139.6210 229.2790 30712.6530 -192.1661 -108.4717
ENERGY: 900000 5.4480 5.0988 4.8113 0.0000 -10814.5106 1445.8158 0.0000 0.0000 1732.8277 -7620.5089 290.8601 -9353.3366 -7590.8390 298.3661 37.3243 143.5064 30710.1768 -114.8157 -40.1586
ENERGY: 1200000 9.1834 5.0900 4.1874 0.0000 -10816.2582 1436.1435 0.0000 0.0000 1831.1469 -7530.5070 307.3632 -9361.6538 -7581.5069 299.5842 -126.5445 -63.0285 30595.9495 -119.3921 -45.9954
ENERGY: 1500000 0.8696 3.3968 4.4158 0.0000 -10734.6905 1463.8158 0.0000 0.0000 1738.1370 -7524.0555 291.7513 -9262.1925 -7584.5163 298.6590 455.8480 473.3004 30767.2580 -151.1068 -80.3295
TCL: Running FEP window   7: Lambda1 0.6999999999999997 Lambda2 0.6499999999999997 [dLambda -0.050000000000000044]
TCL: Setting parameter firsttimestep to 0
TCL: Setting parameter alchLambda to 0.6999999999999997
Info: NONBONDED TABLE R-SQUARED SPACING: 0.0625
Info: NONBONDED TABLE SIZE: 705 POINTS
TCL: Setting parameter alchLambda2 to 0.6499999999999997
Info: NONBONDED TABLE R-SQUARED SPACING: 0.0625
Info: NONBONDED TABLE SIZE: 705 POINTS
TCL: Running for 1500000 steps
ETITLE: TS BOND ANGLE DIHED IMPRP ELECT VDW BOUNDARY MISC KINETIC TOTAL TEMP POTENTIAL TOTALAVG TEMPAVG PRESSURE GPRESSURE VOLUME PRESSAVG GPRESSAVG
ENERGY: 0 0.8696 3.3968 4.4158 0.0000 -10733.9159 1464.1350 0.0000 0.0000 1737.2541 -7523.8446 291.6031 -9261.0987 -7523.8446 291.6031 378.7064 467.6348 30767.2580 378.7064 467.6348
ENERGY: 300000 1.4249 3.7548 2.8930 0.0000 -10689.3753 1369.1037 0.0000 0.0000 1807.6042 -7504.5947 303.4115 -9312.1989 -7540.5614 298.2821 -499.6423 -453.3177 30830.4260 -224.0607 -165.7001
ENERGY: 600000 1.5387 3.8025 2.7180 0.0000 -10817.8541 1469.3737 0.0000 0.0000 1853.7520 -7486.6691 311.1576 -9340.4211 -7526.8376 301.9050 -66.5748 -0.0739 31343.9455 -157.5759 -110.1308
ENERGY: 900000 2.3500 2.7705 2.2002 0.0000 -10836.6645 1468.2249 0.0000 0.0000 1822.3327 -7538.7861 305.8838 -9361.1188 -7530.1812 301.7118 0.8491 26.7445 30753.5787 -44.7380 -6.6760
ENERGY: 1200000 4.4639 4.2726 4.5479 0.0000 -10865.1864 1529.8466 0.0000 0.0000 1843.6980 -7478.3574 309.4700 -9322.0554 -7529.6459 303.3266 518.4147 572.6815 30831.9478 -120.2300 -77.2832
ENERGY: 1500000 2.2309 6.7185 3.3761 0.0000 -10740.0097 1392.3645 0.0000 0.0000 1818.4988 -7516.8209 305.2402 -9335.3197 -7531.1856 303.6528 -351.8726 -322.4160 30559.5987 -114.5709 -73.7697
TCL: Running FEP window   8: Lambda1 0.6499999999999997 Lambda2 0.5999999999999996 [dLambda -0.050000000000000044]
TCL: Setting parameter firsttimestep to 0
TCL: Setting parameter alchLambda to 0.6499999999999997
Info: NONBONDED TABLE R-SQUARED SPACING: 0.0625
Info: NONBONDED TABLE SIZE: 705 POINTS
TCL: Setting parameter alchLambda2 to 0.5999999999999996
Info: NONBONDED TABLE R-SQUARED SPACING: 0.0625
Info: NONBONDED TABLE SIZE: 705 POINTS
TCL: Running for 1500000 steps
ETITLE: TS BOND ANGLE DIHED IMPRP ELECT VDW BOUNDARY MISC KINETIC TOTAL TEMP POTENTIAL TOTALAVG TEMPAVG PRESSURE GPRESSURE VOLUME PRESSAVG GPRESSAVG
ENERGY: 0 2.2309 6.7185 3.3761 0.0000 -10739.2126 1392.0681 0.0000 0.0000 1817.5566 -7517.2624 305.0821 -9334.8190 -7517.2624 305.0821 -407.1164 -334.3154 30559.5987 -407.1164 -334.3154
ENERGY: 300000 2.2083 4.3091 3.4999 0.0000 -10845.9953 1491.4379 0.0000 0.0000 1801.7888 -7542.7514 302.4354 -9344.5402 -7558.7571 302.6979 353.1666 328.8658 30883.7403 -122.3284 -84.1141
ENERGY: 600000 2.5119 1.9346 4.3497 0.0000 -10880.5437 1552.0767 0.0000 0.0000 1765.3547 -7554.3160 296.3199 -9319.6708 -7572.0560 301.5084 848.2960 925.1321 30626.3565 156.7993 216.4958
ENERGY: 900000 3.4889 2.6367 4.8220 0.0000 -10662.8065 1398.6499 0.0000 0.0000 1784.9255 -7468.2835 299.6049 -9253.2090 -7555.7077 301.9260 26.0334 46.5538 30757.8210 -2.2658 53.5335
ENERGY: 1200000 9.0422 3.4699 3.8597 0.0000 -10663.1381 1364.6522 0.0000 0.0000 1800.7337 -7481.3804 302.2583 -9282.1141 -7560.9119 301.8425 -941.3910 -823.2490 31244.2820 -130.1284 -65.9673
ENERGY: 1500000 2.2051 2.9668 2.6670 0.0000 -10871.9858 1505.8177 0.0000 0.0000 1833.2619 -7525.0673 307.7183 -9358.3293 -7570.6049 301.1458 515.1857 647.0610 30329.0047 -120.3621 -52.4403
TCL: Running FEP window   9: Lambda1 0.5999999999999996 Lambda2 0.5499999999999996 [dLambda -0.050000000000000044]
TCL: Setting parameter firsttimestep to 0
TCL: Setting parameter alchLambda to 0.5999999999999996
Info: NONBONDED TABLE R-SQUARED SPACING: 0.0625
Info: NONBONDED TABLE SIZE: 705 POINTS
TCL: Setting parameter alchLambda2 to 0.5499999999999996
Info: NONBONDED TABLE R-SQUARED SPACING: 0.0625
Info: NONBONDED TABLE SIZE: 705 POINTS
TCL: Running for 1500000 steps
ETITLE: TS BOND ANGLE DIHED IMPRP ELECT VDW BOUNDARY MISC KINETIC TOTAL TEMP POTENTIAL TOTALAVG TEMPAVG PRESSURE GPRESSURE VOLUME PRESSAVG GPRESSAVG
ENERGY: 0 2.2051 2.9668 2.6670 0.0000 -10871.2103 1506.1802 0.0000 0.0000 1832.3630 -7524.8282 307.5674 -9357.1912 -7524.8282 307.5674 578.3543 642.4754 30329.0047 578.3543 642.4754
ENERGY: 300000 5.8882 2.8348 3.9422 0.0000 -10996.3433 1549.6188 0.0000 0.0000 1830.3223 -7603.7370 307.2248 -9434.0593 -7599.3079 304.1585 619.1634 686.8273 30664.5186 351.6346 400.6689
ENERGY: 600000 3.9854 4.6604 5.1127 0.0000 -10954.6905 1522.1389 0.0000 0.0000 1775.8264 -7642.9667 298.0775 -9418.7931 -7611.7967 301.0345 724.4768 753.9029 30015.6864 249.9196 308.5700
ENERGY: 900000 4.7774 4.0054 5.7998 0.0000 -10909.0128 1510.8273 0.0000 0.0000 1758.6752 -7624.9278 295.1987 -9383.6030 -7598.0147 301.5435 99.4473 199.2290 30974.9532 24.3806 97.0656
ENERGY: 1200000 4.2021 1.7887 5.0341 0.0000 -10702.4077 1390.9735 0.0000 0.0000 1771.4777 -7528.9316 297.3476 -9300.4093 -7588.0250 301.3832 -547.5431 -434.1165 31041.9908 -84.1147 -10.2486
ENERGY: 1500000 2.4268 3.1614 5.3454 0.0000 -10808.4515 1485.8656 0.0000 0.0000 1723.3304 -7588.3220 289.2659 -9311.6524 -7585.9007 299.9904 390.2723 465.5000 30656.3259 -102.0145 -29.2823
TCL: Running FEP window  10: Lambda1 0.5499999999999996 Lambda2 0.4999999999999996 [dLambda -0.04999999999999999]
TCL: Setting parameter firsttimestep to 0
TCL: Setting parameter alchLambda to 0.5499999999999996
Info: NONBONDED TABLE R-SQUARED SPACING: 0.0625
Info: NONBONDED TABLE SIZE: 705 POINTS
TCL: Setting parameter alchLambda2 to 0.4999999999999996
Info: NONBONDED TABLE R-SQUARED SPACING: 0.0625
Info: NONBONDED TABLE SIZE: 705 POINTS
TCL: Running for 1500000 steps
ETITLE: TS BOND ANGLE DIHED IMPRP ELECT VDW BOUNDARY MISC KINETIC TOTAL TEMP POTENTIAL TOTALAVG TEMPAVG PRESSURE GPRESSURE VOLUME PRESSAVG GPRESSAVG
ENERGY: 0 2.4268 3.1614 5.3454 0.0000 -10808.1933 1486.2201 0.0000 0.0000 1722.4875 -7588.5520 289.1245 -9311.0395 -7588.5520 289.1245 370.3434 460.7318 30656.3259 370.3434 460.7318
ENERGY: 300000 6.2773 4.2226 4.0220 0.0000 -10939.9328 1546.2718 0.0000 0.0000 1740.9224 -7638.2167 292.2188 -9379.1391 -7599.8979 296.1773 288.4419 381.7224 31200.6102 419.1584 452.0258
ENERGY: 600000 2.0271 6.7495 1.7297 0.0000 -10826.0795 1477.1367 0.0000 0.0000 1760.2982 -7578.1383 295.4711 -9338.4365 -7588.3889 296.6060 39.8151 151.0226 31073.6057 201.0263 250.0423
ENERGY: 900000 5.1495 2.7819 3.4506 0.0000 -10817.9217 1452.4946 0.0000 0.0000 1828.7408 -7525.3044 306.9594 -9354.0452 -7586.0904 298.1518 50.7857 163.7585 30563.9882 58.2085 110.4838
ENERGY: 1200000 5.8338 4.6065 1.9820 0.0000 -10802.2382 1446.4229 0.0000 0.0000 1792.2008 -7551.1922 300.8260 -9343.3930 -7575.8759 299.2321 -107.7651 -10.6672 30880.7701 14.4228 60.7259
ENERGY: 1500000 6.5620 4.8905 2.6787 0.0000 -10864.1729 1463.5383 0.0000 0.0000 1733.7372 -7652.7663 291.0128 -9386.5035 -7578.1365 298.1449 166.5698 262.4390 30362.1485 54.9751 105.7845
TCL: Running FEP window  11: Lambda1 0.4999999999999996 Lambda2 0.4499999999999996 [dLambda -0.04999999999999999]
TCL: Setting parameter firsttimestep to 0
TCL: Setting parameter alchLambda to 0.4999999999999996
Info: NONBONDED TABLE R-SQUARED SPACING: 0.0625
Info: NONBONDED TABLE SIZE: 705 POINTS
TCL: Setting parameter alchLambda2 to 0.4499999999999996
Info: NONBONDED TABLE R-SQUARED SPACING: 0.0625
Info: NONBONDED TABLE SIZE: 705 POINTS
TCL: Running for 1500000 steps
ETITLE: TS BOND ANGLE DIHED IMPRP ELECT VDW BOUNDARY MISC KINETIC TOTAL TEMP POTENTIAL TOTALAVG TEMPAVG PRESSURE GPRESSURE VOLUME PRESSAVG GPRESSAVG
ENERGY: 0 6.5620 4.8904 2.6787 0.0000 -10863.9252 1463.6694 0.0000 0.0000 1732.8433 -7653.2813 290.8627 -9386.1247 -7653.2813 290.8627 172.8581 259.1726 30362.1485 172.8581 259.1726
ENERGY: 300000 2.1131 5.5435 6.1237 0.0000 -10849.9300 1519.8071 0.0000 0.0000 1815.1544 -7501.1883 304.6789 -9316.3426 -7570.6710 299.2958 608.5644 707.0662 30877.1098 -95.3297 -27.7127
ENERGY: 600000 4.6194 3.6994 4.4577 0.0000 -10938.0882 1501.3156 0.0000 0.0000 1743.9983 -7679.9978 292.7351 -9423.9961 -7597.0145 298.7373 118.0215 234.2554 30776.7264 182.9022 257.0508
ENERGY: 900000 1.5532 4.6306 3.8105 0.0000 -10890.6722 1488.6049 0.0000 0.0000 1818.5045 -7573.5685 305.2412 -9392.0730 -7601.2730 299.1377 196.1262 194.3256 30863.5326 61.9056 124.7214
ENERGY: 1200000 2.8531 3.4263 5.3575 0.0000 -10860.2385 1454.5146 0.0000 0.0000 1784.2883 -7609.7987 299.4979 -9394.0870 -7597.5437 299.2948 -111.0131 -17.4348 30780.5448 -11.8694 60.3506
ENERGY: 1500000 3.5616 4.2190 4.3903 0.0000 -10928.1050 1531.4586 0.0000 0.0000 1766.5004 -7617.9751 296.5121 -9384.4755 -7590.6587 299.6417 553.5459 636.9729 30416.5927 -28.6467 47.2325
TCL: Running FEP window  12: Lambda1 0.4499999999999996 Lambda2 0.39999999999999963 [dLambda -0.04999999999999999]
TCL: Setting parameter firsttimestep to 0
TCL: Setting parameter alchLambda to 0.4499999999999996
Info: NONBONDED TABLE R-SQUARED SPACING: 0.0625
Info: NONBONDED TABLE SIZE: 705 POINTS
TCL: Setting parameter alchLambda2 to 0.39999999999999963
Info: NONBONDED TABLE R-SQUARED SPACING: 0.0625
Info: NONBONDED TABLE SIZE: 705 POINTS
TCL: Running for 1500000 steps
ETITLE: TS BOND ANGLE DIHED IMPRP ELECT VDW BOUNDARY MISC KINETIC TOTAL TEMP POTENTIAL TOTALAVG TEMPAVG PRESSURE GPRESSURE VOLUME PRESSAVG GPRESSAVG
ENERGY: 0 3.5616 4.2190 4.3903 0.0000 -10928.1048 1531.9279 0.0000 0.0000 1765.6048 -7618.4013 296.3618 -9384.0061 -7618.4013 296.3618 538.3193 633.5459 30416.5927 538.3193 633.5459
ENERGY: 300000 1.4897 6.7664 4.6233 0.0000 -10780.0595 1430.8994 0.0000 0.0000 1810.7159 -7525.5648 303.9339 -9336.2807 -7531.1329 304.9314 -200.1671 -133.3178 31502.6527 -133.1922 -59.8877
ENERGY: 600000 5.7470 8.1416 5.1766 0.0000 -10767.0600 1423.5350 0.0000 0.0000 1826.4739 -7497.9859 306.5789 -9324.4598 -7566.3858 302.6074 -323.2361 -256.8350 30713.0529 -135.6434 -78.3300
ENERGY: 900000 3.4693 4.0401 4.7321 0.0000 -10865.8637 1487.5461 0.0000 0.0000 1797.5416 -7568.5346 301.7225 -9366.0762 -7573.1287 301.8684 43.3836 164.3506 30702.7870 -79.2071 -8.1456
ENERGY: 1200000 3.2349 6.7711 3.3815 0.0000 -10954.5182 1500.2317 0.0000 0.0000 1762.9433 -7677.9558 295.9151 -9440.8990 -7572.4491 301.2484 234.9483 252.6381 30479.5812 -68.4535 0.2556
ENERGY: 1500000 6.7163 5.6710 3.2335 0.0000 -10864.5375 1454.9152 0.0000 0.0000 1776.4806 -7617.5209 298.1874 -9394.0015 -7581.2422 301.1994 4.1971 50.1058 30588.4161 -1.9724 64.4613
TCL: Running FEP window  13: Lambda1 0.39999999999999963 Lambda2 0.34999999999999964 [dLambda -0.04999999999999999]
TCL: Setting parameter firsttimestep to 0
TCL: Setting parameter alchLambda to 0.39999999999999963
Info: NONBONDED TABLE R-SQUARED SPACING: 0.0625
Info: NONBONDED TABLE SIZE: 705 POINTS
TCL: Setting parameter alchLambda2 to 0.34999999999999964
Info: NONBONDED TABLE R-SQUARED SPACING: 0.0625
Info: NONBONDED TABLE SIZE: 705 POINTS
TCL: Running for 1500000 steps
ETITLE: TS BOND ANGLE DIHED IMPRP ELECT VDW BOUNDARY MISC KINETIC TOTAL TEMP POTENTIAL TOTALAVG TEMPAVG PRESSURE GPRESSURE VOLUME PRESSAVG GPRESSAVG
ENERGY: 0 6.7163 5.6710 3.2336 0.0000 -10864.5374 1454.9283 0.0000 0.0000 1775.6247 -7618.3636 298.0437 -9393.9883 -7618.3636 298.0437 -31.1728 44.6920 30588.4161 -31.1728 44.6920
ENERGY: 300000 3.7302 3.7408 5.1987 0.0000 -10859.4695 1461.8578 0.0000 0.0000 1844.2178 -7540.7242 309.5572 -9384.9421 -7586.5543 303.1046 -39.5671 38.0363 30733.8927 193.9081 252.0665
ENERGY: 600000 3.4876 5.6631 3.7461 0.0000 -10928.4975 1497.0524 0.0000 0.0000 1755.9692 -7662.5792 294.7445 -9418.5484 -7608.0153 302.7118 48.9596 70.3597 30700.2212 49.0577 114.1046
ENERGY: 900000 3.2438 6.3471 4.5711 0.0000 -10763.8959 1448.3731 0.0000 0.0000 1789.2314 -7512.1295 300.3276 -9301.3608 -7587.7318 302.7409 -23.9361 51.5718 31152.0454 -74.7585 -11.6926
ENERGY: 1200000 6.5928 5.4063 2.8910 0.0000 -10956.5722 1473.2977 0.0000 0.0000 1756.1670 -7712.2174 294.7777 -9468.3844 -7591.5410 302.0693 -28.4814 15.1470 30009.6396 -114.1195 -51.3654
ENERGY: 1500000 7.0269 6.4003 4.0814 0.0000 -10917.8180 1566.5980 0.0000 0.0000 1804.1862 -7529.5252 302.8378 -9333.7114 -7584.2826 301.4367 907.0007 1013.2689 30723.7524 -51.5821 12.5577
TCL: Running FEP window  14: Lambda1 0.34999999999999964 Lambda2 0.29999999999999966 [dLambda -0.04999999999999999]
TCL: Setting parameter firsttimestep to 0
TCL: Setting parameter alchLambda to 0.34999999999999964
Info: NONBONDED TABLE R-SQUARED SPACING: 0.0625
Info: NONBONDED TABLE SIZE: 705 POINTS
TCL: Setting parameter alchLambda2 to 0.29999999999999966
Info: NONBONDED TABLE R-SQUARED SPACING: 0.0625
Info: NONBONDED TABLE SIZE: 705 POINTS
TCL: Running for 1500000 steps
ETITLE: TS BOND ANGLE DIHED IMPRP ELECT VDW BOUNDARY MISC KINETIC TOTAL TEMP POTENTIAL TOTALAVG TEMPAVG PRESSURE GPRESSURE VOLUME PRESSAVG GPRESSAVG
ENERGY: 0 7.0269 6.4003 4.0814 0.0000 -10917.8178 1567.0504 0.0000 0.0000 1803.2950 -7529.9638 302.6882 -9333.2588 -7529.9638 302.6882 915.9347 1011.2487 30723.7524 915.9347 1011.2487
ENERGY: 300000 2.3174 2.0600 3.0021 0.0000 -10806.1599 1402.2780 0.0000 0.0000 1812.3995 -7584.1030 304.2164 -9396.5024 -7582.6308 299.3942 -549.8738 -554.1353 31116.4271 108.8697 182.2223
ENERGY: 600000 3.7410 4.2212 2.0975 0.0000 -10815.5827 1451.6997 0.0000 0.0000 1813.0446 -7540.7786 304.3247 -9353.8232 -7571.6829 301.8848 85.1583 171.3486 30566.3783 94.7954 163.7958
ENERGY: 900000 3.8295 3.7549 9.5404 0.0000 -10899.1000 1512.8320 0.0000 0.0000 1807.5915 -7561.5517 303.4094 -9369.1432 -7577.2479 301.1253 530.3019 633.3176 30866.8866 165.9407 237.4155
ENERGY: 1200000 2.1527 2.5315 1.2001 0.0000 -10942.0283 1505.1330 0.0000 0.0000 1781.4995 -7649.5115 299.0298 -9431.0109 -7581.9137 301.0413 345.4120 445.8465 30375.4891 64.0926 135.0452
ENERGY: 1500000 3.5622 2.8885 7.4350 0.0000 -10672.6823 1370.2343 0.0000 0.0000 1844.6102 -7443.9521 309.6231 -9288.5623 -7574.7624 301.6497 -512.3841 -398.1398 30670.3580 -45.5245 24.6602
TCL: Running FEP window  15: Lambda1 0.29999999999999966 Lambda2 0.24999999999999967 [dLambda -0.04999999999999999]
TCL: Setting parameter firsttimestep to 0
TCL: Setting parameter alchLambda to 0.29999999999999966
Info: NONBONDED TABLE R-SQUARED SPACING: 0.0625
Info: NONBONDED TABLE SIZE: 705 POINTS
TCL: Setting parameter alchLambda2 to 0.24999999999999967
Info: NONBONDED TABLE R-SQUARED SPACING: 0.0625
Info: NONBONDED TABLE SIZE: 705 POINTS
TCL: Running for 1500000 steps
ETITLE: TS BOND ANGLE DIHED IMPRP ELECT VDW BOUNDARY MISC KINETIC TOTAL TEMP POTENTIAL TOTALAVG TEMPAVG PRESSURE GPRESSURE VOLUME PRESSAVG GPRESSAVG
ENERGY: 0 3.5621 2.8885 7.4350 0.0000 -10672.6834 1369.8063 0.0000 0.0000 1843.7506 -7445.2409 309.4788 -9288.9915 -7445.2409 309.4788 -490.9741 -403.5030 30670.3580 -490.9741 -403.5030
ENERGY: 300000 4.4464 6.1289 1.1238 0.0000 -11110.7427 1606.4823 0.0000 0.0000 1762.7454 -7729.8157 295.8819 -9492.5612 -7551.0412 305.2028 585.5385 621.0318 30808.7198 134.2676 206.2424
ENERGY: 600000 2.1471 3.9740 6.1414 0.0000 -10917.6890 1476.2083 0.0000 0.0000 1752.9397 -7676.2784 294.2359 -9429.2181 -7577.1922 300.3512 -225.6560 -112.2681 30624.4819 -18.0155 62.6540
ENERGY: 900000 1.9562 5.8581 7.6531 0.0000 -10735.7591 1438.1624 0.0000 0.0000 1759.9499 -7522.1794 295.4126 -9282.1293 -7571.0962 300.7354 118.9541 258.2800 30768.1674 -18.8549 54.4811
ENERGY: 1200000 4.8839 3.9802 5.4489 0.0000 -10988.2495 1555.4702 0.0000 0.0000 1779.9361 -7638.5302 298.7674 -9418.4663 -7577.3003 300.3120 459.5364 491.5757 30619.7402 -0.0278 59.6822
ENERGY: 1500000 2.8185 4.3624 2.2144 0.0000 -10859.8039 1432.4264 0.0000 0.0000 1767.0282 -7650.9539 296.6007 -9417.9821 -7588.3421 299.8842 -534.7131 -502.0847 30937.5296 -38.6590 20.1691
TCL: Running FEP window  16: Lambda1 0.24999999999999967 Lambda2 0.19999999999999968 [dLambda -0.04999999999999999]
TCL: Setting parameter firsttimestep to 0
TCL: Setting parameter alchLambda to 0.24999999999999967
Info: NONBONDED TABLE R-SQUARED SPACING: 0.0625
Info: NONBONDED TABLE SIZE: 705 POINTS
TCL: Setting parameter alchLambda2 to 0.19999999999999968
Info: NONBONDED TABLE R-SQUARED SPACING: 0.0625
Info: NONBONDED TABLE SIZE: 705 POINTS
TCL: Running for 1500000 steps
ETITLE: TS BOND ANGLE DIHED IMPRP ELECT VDW BOUNDARY MISC KINETIC TOTAL TEMP POTENTIAL TOTALAVG TEMPAVG PRESSURE GPRESSURE VOLUME PRESSAVG GPRESSAVG
ENERGY: 0 2.8185 4.3624 2.2144 0.0000 -10859.8048 1432.5584 0.0000 0.0000 1766.1298 -7651.7213 296.4499 -9417.8510 -7651.7213 296.4499 -599.2612 -506.6733 30937.5296 -599.2612 -506.6733
ENERGY: 300000 1.9373 6.7377 5.3047 0.0000 -10985.4165 1523.7721 0.0000 0.0000 1771.6606 -7676.0041 297.3783 -9447.6647 -7609.9404 300.3748 114.9265 188.6060 30743.2182 152.7114 196.3251
ENERGY: 600000 3.1406 3.8714 2.5436 0.0000 -10860.2151 1500.6613 0.0000 0.0000 1814.2366 -7535.7618 304.5248 -9349.9984 -7588.7601 300.0583 183.4888 227.4031 30834.5721 114.5491 163.2556
ENERGY: 900000 5.3391 4.0559 7.7583 0.0000 -10757.5320 1400.5575 0.0000 0.0000 1825.3385 -7514.4827 306.3883 -9339.8212 -7579.8596 301.1374 -405.6216 -402.3210 30672.5389 133.1224 175.4369
ENERGY: 1200000 3.0139 4.7442 2.2289 0.0000 -10952.3147 1542.8831 0.0000 0.0000 1785.7419 -7613.7028 299.7419 -9399.4446 -7584.9618 301.0251 705.6369 746.6920 30443.7569 210.6772 254.5046
ENERGY: 1500000 2.6853 4.0585 2.1812 0.0000 -10880.1822 1491.1987 0.0000 0.0000 1788.2530 -7591.8055 300.1634 -9380.0585 -7593.3021 300.3163 237.6220 324.3764 30314.4237 135.6401 177.3223
TCL: Running FEP window  17: Lambda1 0.19999999999999968 Lambda2 0.1499999999999997 [dLambda -0.04999999999999999]
TCL: Setting parameter firsttimestep to 0
TCL: Setting parameter alchLambda to 0.19999999999999968
Info: NONBONDED TABLE R-SQUARED SPACING: 0.0625
Info: NONBONDED TABLE SIZE: 705 POINTS
TCL: Setting parameter alchLambda2 to 0.1499999999999997
Info: NONBONDED TABLE R-SQUARED SPACING: 0.0625
Info: NONBONDED TABLE SIZE: 705 POINTS
TCL: Running for 1500000 steps
ETITLE: TS BOND ANGLE DIHED IMPRP ELECT VDW BOUNDARY MISC KINETIC TOTAL TEMP POTENTIAL TOTALAVG TEMPAVG PRESSURE GPRESSURE VOLUME PRESSAVG GPRESSAVG
ENERGY: 0 2.6853 4.0585 2.1812 0.0000 -10880.1810 1491.4793 0.0000 0.0000 1787.3588 -7592.4178 300.0133 -9379.7766 -7592.4178 300.0133 231.6945 322.3668 30314.4237 231.6945 322.3668
ENERGY: 300000 4.6120 4.8552 4.7248 0.0000 -10855.0591 1452.4039 0.0000 0.0000 1822.6338 -7565.8295 305.9343 -9388.4633 -7548.8458 301.4506 -521.4839 -437.5549 30999.9376 -233.6271 -143.4452
ENERGY: 600000 4.3004 2.7105 4.1058 0.0000 -10915.5546 1490.1391 0.0000 0.0000 1738.8476 -7675.4511 291.8706 -9414.2988 -7574.7912 301.7443 105.6091 152.4538 30472.2604 -188.3187 -126.7192
ENERGY: 900000 4.1411 4.0011 3.4654 0.0000 -10949.8330 1480.1339 0.0000 0.0000 1790.4575 -7667.6340 300.5334 -9458.0914 -7576.5019 301.9484 -196.6834 -133.8699 30803.7850 -156.7052 -97.0665
ENERGY: 1200000 4.6907 6.2072 5.2743 0.0000 -10895.9398 1459.6412 0.0000 0.0000 1768.9634 -7651.1630 296.9256 -9420.1264 -7590.1649 300.7941 -429.9896 -341.8640 30938.3093 -156.3101 -97.5307
ENERGY: 1500000 3.6032 4.7471 4.0867 0.0000 -10960.4404 1533.2627 0.0000 0.0000 1830.3948 -7584.3459 307.2370 -9414.7406 -7575.3724 301.9699 380.9848 430.5491 30736.3199 -73.8113 -15.6654
TCL: Running FEP window  18: Lambda1 0.1499999999999997 Lambda2 0.09999999999999969 [dLambda -0.05 ]
TCL: Setting parameter firsttimestep to 0
TCL: Setting parameter alchLambda to 0.1499999999999997
Info: NONBONDED TABLE R-SQUARED SPACING: 0.0625
Info: NONBONDED TABLE SIZE: 705 POINTS
TCL: Setting parameter alchLambda2 to 0.09999999999999969
Info: NONBONDED TABLE R-SQUARED SPACING: 0.0625
Info: NONBONDED TABLE SIZE: 705 POINTS
TCL: Running for 1500000 steps
ETITLE: TS BOND ANGLE DIHED IMPRP ELECT VDW BOUNDARY MISC KINETIC TOTAL TEMP POTENTIAL TOTALAVG TEMPAVG PRESSURE GPRESSURE VOLUME PRESSAVG GPRESSAVG
ENERGY: 0 3.6032 4.7471 4.0867 0.0000 -10960.4407 1533.8278 0.0000 0.0000 1829.4999 -7584.6760 307.0868 -9414.1759 -7584.6760 307.0868 349.7576 429.1750 30736.3199 349.7576 429.1750
ENERGY: 300000 2.3814 7.0291 2.8606 0.0000 -10808.6884 1482.4326 0.0000 0.0000 1790.4144 -7523.5704 300.5262 -9313.9848 -7548.8691 303.6669 93.5522 145.7249 31148.3225 119.7797 166.8481
ENERGY: 600000 4.8419 3.0034 2.8846 0.0000 -10813.7000 1453.5166 0.0000 0.0000 1744.5386 -7604.9149 292.8258 -9349.4535 -7528.9535 303.6569 -120.2530 -11.5854 30817.1597 -29.4344 37.5037
ENERGY: 900000 3.2202 4.4353 4.8512 0.0000 -10831.2448 1444.4653 0.0000 0.0000 1805.7393 -7568.5335 303.0985 -9374.2728 -7560.9787 301.9814 -65.5510 -60.6292 30633.1950 -19.3540 34.7751
ENERGY: 1200000 3.2975 4.6063 2.2016 0.0000 -10656.3728 1417.6477 0.0000 0.0000 1795.4955 -7433.1243 301.3791 -9228.6198 -7542.5690 302.2808 -245.5183 -182.3376 31322.5429 -82.2230 -30.4743
ENERGY: 1500000 6.1979 2.6823 3.8946 0.0000 -10807.2137 1417.3992 0.0000 0.0000 1768.6214 -7608.4184 296.8682 -9377.0398 -7555.9195 301.3496 -454.8428 -385.7897 30707.4199 -111.5436 -59.4458
TCL: Running FEP window  19: Lambda1 0.09999999999999969 Lambda2 0.049999999999999684 [dLambda -0.05 ]
TCL: Setting parameter firsttimestep to 0
TCL: Setting parameter alchLambda to 0.09999999999999969
Info: NONBONDED TABLE R-SQUARED SPACING: 0.0625
Info: NONBONDED TABLE SIZE: 705 POINTS
TCL: Setting parameter alchLambda2 to 0.049999999999999684
Info: NONBONDED TABLE R-SQUARED SPACING: 0.0625
Info: NONBONDED TABLE SIZE: 705 POINTS
TCL: Running for 1500000 steps
ETITLE: TS BOND ANGLE DIHED IMPRP ELECT VDW BOUNDARY MISC KINETIC TOTAL TEMP POTENTIAL TOTALAVG TEMPAVG PRESSURE GPRESSURE VOLUME PRESSAVG GPRESSAVG
ENERGY: 0 6.1979 2.6823 3.8946 0.0000 -10807.2137 1417.5659 0.0000 0.0000 1767.7743 -7609.0987 296.7260 -9376.8730 -7609.0987 296.7260 -472.2358 -388.0359 30707.4199 -472.2358 -388.0359
ENERGY: 300000 3.3673 3.9595 7.3987 0.0000 -10833.3157 1453.5009 0.0000 0.0000 1799.4091 -7565.6802 302.0360 -9365.0893 -7536.0898 301.5147 -125.2136 -94.5676 30675.9953 -306.6340 -246.0905
ENERGY: 600000 3.4110 3.3439 5.8013 0.0000 -10781.4779 1383.7746 0.0000 0.0000 1774.5607 -7610.5865 297.8651 -9385.1472 -7541.4659 300.1824 -1006.2059 -895.9854 31279.0365 -425.6324 -343.8567
ENERGY: 900000 5.2126 3.9224 6.4113 0.0000 -10956.8549 1488.5205 0.0000 0.0000 1782.8308 -7669.9574 299.2533 -9452.7881 -7561.4859 299.5290 -98.9603 -135.1804 30544.6414 -268.7397 -199.6506
ENERGY: 1200000 2.3820 4.2764 7.2585 0.0000 -10908.9801 1493.1711 0.0000 0.0000 1721.4130 -7680.4791 288.9441 -9401.8921 -7577.3171 298.7846 105.1490 199.9905 30730.4860 -121.2652 -54.5017
ENERGY: 1500000 2.4983 4.5904 4.6226 0.0000 -10893.0111 1462.9904 0.0000 0.0000 1816.8846 -7601.4248 304.9693 -9418.3094 -7581.3141 299.7314 -66.3551 -78.0932 30472.6835 -103.0983 -35.9503
TCL: Running FEP window  20: Lambda1 0.049999999999999684 Lambda2 0.0    [dLambda -0.049999999999999684]
TCL: Setting parameter firsttimestep to 0
TCL: Setting parameter alchLambda to 0.049999999999999684
Info: NONBONDED TABLE R-SQUARED SPACING: 0.0625
Info: NONBONDED TABLE SIZE: 705 POINTS
TCL: Setting parameter alchLambda2 to 0.0
Info: NONBONDED TABLE R-SQUARED SPACING: 0.0625
Info: NONBONDED TABLE SIZE: 705 POINTS
TCL: Running for 1500000 steps
ETITLE: TS BOND ANGLE DIHED IMPRP ELECT VDW BOUNDARY MISC KINETIC TOTAL TEMP POTENTIAL TOTALAVG TEMPAVG PRESSURE GPRESSURE VOLUME PRESSAVG GPRESSAVG
ENERGY: 0 2.4983 4.5904 4.6226 0.0000 -10893.0108 1462.6816 0.0000 0.0000 1816.0227 -7602.5951 304.8246 -9418.6178 -7602.5951 304.8246 -162.3106 -82.9896 30472.6835 -162.3106 -82.9896
ENERGY: 300000 2.2558 3.1544 7.0129 0.0000 -10928.7709 1512.7920 0.0000 0.0000 1778.2561 -7625.2997 298.4854 -9403.5558 -7589.3789 302.6927 140.8015 241.9501 30908.5914 -17.9095 78.8073
ENERGY: 600000 2.3297 7.1770 4.9495 0.0000 -10863.9334 1507.2655 0.0000 0.0000 1773.6490 -7568.5627 297.7121 -9342.2116 -7597.1241 299.3269 203.9233 300.1555 31091.9107 -10.8065 75.3412
ENERGY: 900000 2.8787 4.4935 4.0451 0.0000 -10999.7046 1499.9653 0.0000 0.0000 1783.5150 -7704.8070 299.3681 -9488.3220 -7612.1369 299.4370 -122.8623 -47.9585 30647.3699 4.8978 87.6834
ENERGY: 1200000 2.4984 7.2165 3.6897 0.0000 -10846.7042 1478.3213 0.0000 0.0000 1713.7488 -7641.2294 287.6576 -9354.9782 -7606.3481 299.2331 -101.5428 -81.5064 30888.5755 21.7720 96.0348
ENERGY: 1500000 2.4908 5.9107 4.7931 0.0000 -10888.8978 1492.8924 0.0000 0.0000 1759.3109 -7623.4998 295.3054 -9382.8108 -7601.9136 300.1004 31.8726 119.6120 30898.9375 32.5628 104.9997
TCL: Exiting due to exit command.
