Info: SIMULATION PARAMETERS:
Info: TIMESTEP               2
Info: NUMBER OF STEPS        0
Info: STEPS PER CYCLE        10
Info: PERIODIC CELL BASIS 1  34.207 0 0
Info: PERIODIC CELL BASIS 2  0 35.411 0
Info: PERIODIC CELL BASIS 3  0 0 35.723
Info: PERIODIC CELL CENTER   0 0 0
Info: WRAPPING WATERS AROUND PERIODIC BOUNDARIES ON OUTPUT.
Info: WRAPPING ALL CLUSTERS AROUND PERIODIC BOUNDARIES ON OUTPUT.
Info: FIRST LDB TIMESTEP     50
Info: LAST LDB TIMESTEP     -1
Info: HOM BACKGROUND SCALING 1
Info: PME BACKGROUND SCALING 1
Info: MIN ATOMS PER PATCH    40
Info: EMPTY PATCH LOAD       40 ATOMS
Info: INITIAL TEMPERATURE    300
Info: CENTER OF MASS MOVING INITIALLY? NO
Info: DIELECTRIC             1
Info: EXCLUDE                SCALED ONE-FOUR
Info: 1-4 ELECTROSTATICS SCALED BY 0.833333
Info: MODIFIED 1-4 VDW PARAMETERS WILL BE USED
Info: DCD FILENAME           mobley_1261349_equil.dcd
Info: DCD FREQUENCY          100000
Info: DCD FIRST STEP         100000
Info: DCD FILE WILL CONTAIN UNIT CELL DATA
Info: XST FILENAME           mobley_1261349_equil.xst
Info: XST FREQUENCY          100000
Info: NO VELOCITY DCD OUTPUT
Info: NO FORCE DCD OUTPUT
Info: OUTPUT FILENAME        mobley_1261349_equil
Info: BINARY OUTPUT FILES WILL BE USED
Info: RESTART FILENAME       mobley_1261349_equil.restart
Info: RESTART FREQUENCY      100000
Info: BINARY RESTART FILES WILL BE USED
Info: CUTOFF                 9
Info: PAIRLIST DISTANCE      11
Info: PAIRLIST SHRINK RATE   0.01
Info: PAIRLIST GROW RATE     0.01
Info: PAIRLIST TRIGGER       0.3
Info: PAIRLISTS PER CYCLE    2
Info: PAIRLISTS ENABLED
Info: MARGIN                 8
Info: HYDROGEN GROUP CUTOFF  2.5
Info: PATCH DIMENSION        21.5
Info: ENERGY OUTPUT STEPS    100000
Info: ENERGY EVALUATION STEPS    100000
Info: OUTPUT ENERGY PRECISION 4
Info: CROSSTERM ENERGY INCLUDED IN DIHEDRAL
Info: TIMING OUTPUT STEPS    1000000
Info: PRESSURE OUTPUT STEPS  100000
Info: FIXED ATOMS ACTIVE
Info: LANGEVIN DYNAMICS ACTIVE
Info: LANGEVIN TEMPERATURE   30
Info: LANGEVIN USING BBK INTEGRATOR
Info: LANGEVIN DAMPING COEFFICIENT IS 1 INVERSE PS
Info: LANGEVIN DYNAMICS APPLIED TO HYDROGENS
Info: LANGEVIN PISTON PRESSURE CONTROL ACTIVE
Info:        TARGET PRESSURE IS 1.01325 BAR
Info:     OSCILLATION PERIOD IS 50 FS
Info:             DECAY TIME IS 25 FS
Info:     PISTON TEMPERATURE IS 300 K
Info:       PRESSURE CONTROL IS GROUP-BASED
Info:    INITIAL STRAIN RATE IS 0 0 0
Info:       CELL FLUCTUATION IS ISOTROPIC
Info: PARTICLE MESH EWALD (PME) ACTIVE
Info: PME TOLERANCE               1e-06
Info: PME EWALD COEFFICIENT       0.348832
Info: PME INTERPOLATION ORDER     4
Info: PME GRID DIMENSIONS         36 36 36
Info: PME MAXIMUM GRID SPACING    1
Info: FULL ELECTROSTATIC EVALUATION FREQUENCY      2
Info: USING VERLET I (r-RESPA) MTS SCHEME.
Info: C1 SPLITTING OF LONG RANGE ELECTROSTATICS
Info: PLACING ATOMS IN PATCHES BY HYDROGEN GROUPS
Info: RIGID BONDS TO HYDROGEN : ALL
Info:         ERROR TOLERANCE : 1e-08
Info:          MAX ITERATIONS : 100
Info: RIGID WATER USING SETTLE ALGORITHM
Info: RANDOM NUMBER SEED     1742278096
Info: USE HYDROGEN BONDS?    NO
Info: Using AMBER format force field!
Info: AMBER PARM FILE        mobley_1261349.prmtop
Info: COORDINATE PDB         mobley_1261349.pdb
Info: Exclusions will be read from PARM file!
Info: SCNB (VDW SCALING)     2
Info: USING ARITHMETIC MEAN TO COMBINE L-J SIGMA PARAMETERS
Info: BINARY COORDINATES     mobley_1261349_min.coor
Info: SUMMARY OF PARAMETERS:
Info: 4 BONDS
Info: 3 ANGLES
Info:   3 HARMONIC
Info:   0 COSINE-BASED
Info: 1 DIHEDRAL
Info: 0 IMPROPER
Info: 0 CROSSTERM
Info: 0 VDW
Info: 10 VDW_PAIRS
Info: 0 NBTHOLE_PAIRS
Info: STRUCTURE SUMMARY:
Info: 2915 ATOMS
Info: 2914 BONDS
Info: 30 ANGLES
Info: 36 DIHEDRALS
Info: 0 IMPROPERS
Info: 0 CROSSTERMS
Info: 2980 EXCLUSIONS
Info: 17 FIXED ATOMS
Info: 2910 RIGID BONDS
Info: 12 RIGID BONDS BETWEEN FIXED ATOMS
Info: 5796 DEGREES OF FREEDOM
Info: 971 HYDROGEN GROUPS
Info: 4 ATOMS IN LARGEST HYDROGEN GROUP
Info: 971 MIGRATION GROUPS
Info: 4 ATOMS IN LARGEST MIGRATION GROUP
Info: 5 HYDROGEN GROUPS WITH ALL ATOMS FIXED
Info: TOTAL MASS = 17475.6 amu
Info: TOTAL CHARGE = 0.000400018 e
Info: MASS DENSITY = 0.670641 g/cm^3
Info: ATOM DENSITY = 0.0673655 atoms/A^3
Info: ADDED 0 IMPLICIT EXCLUSIONS
Info: NONBONDED TABLE R-SQUARED SPACING: 0.0625
Info: NONBONDED TABLE SIZE: 705 POINTS
Info: REMOVING COM VELOCITY -0.0245382 0.135081 -0.000876626
TCL: Running for 100000 steps
ETITLE: TS BOND ANGLE DIHED IMPRP ELECT VDW BOUNDARY MISC KINETIC TOTAL TEMP POTENTIAL TOTAL3 TEMPAVG PRESSURE GPRESSURE VOLUME PRESSAVG GPRESSAVG
ENERGY: 0 0.0000 0.0000 0.0000 0.0000 -13524.7394 2383.7659 0.0000 0.0000 1794.0869 -9346.8866 311.5340 -11140.9735 -9346.5255 311.5340 432.8996 465.5636 43271.4155 432.8996 465.5636
ENERGY: 100000 0.0000 0.0000 0.0000 0.0000 -14045.1766 2380.2352 0.0000 0.0000 169.3450 -11495.5964 29.4059 -11664.9414 -11495.2584 30.9935 -700.1976 -638.5702 27953.4102 4.2696 4.2590
TCL: Running 100000 steps at 60 kelvin.
TCL: Setting parameter langevinTemp to 60
TCL: Running for 100000 steps
ETITLE: TS BOND ANGLE DIHED IMPRP ELECT VDW BOUNDARY MISC KINETIC TOTAL TEMP POTENTIAL TOTAL3 TEMPAVG PRESSURE GPRESSURE VOLUME PRESSAVG GPRESSAVG
ENERGY: 100000 0.0000 0.0000 0.0000 0.0000 -14045.1766 2380.2352 0.0000 0.0000 169.2639 -11495.6775 29.3918 -11664.9414 -11495.2957 29.3918 -687.9412 -638.5927 27953.4102 -687.9412 -638.5927
ENERGY: 200000 0.0000 0.0000 0.0000 0.0000 -13836.2839 2302.2497 0.0000 0.0000 349.9475 -11184.0867 60.7666 -11534.0342 -11182.6666 59.8890 -789.0403 -757.9633 28129.4005 4.5559 4.4302
TCL: Running 100000 steps at 90 kelvin.
TCL: Setting parameter langevinTemp to 90
TCL: Running for 100000 steps
ETITLE: TS BOND ANGLE DIHED IMPRP ELECT VDW BOUNDARY MISC KINETIC TOTAL TEMP POTENTIAL TOTAL3 TEMPAVG PRESSURE GPRESSURE VOLUME PRESSAVG GPRESSAVG
ENERGY: 200000 0.0000 0.0000 0.0000 0.0000 -13836.2839 2302.2497 0.0000 0.0000 349.7783 -11184.2559 60.7372 -11534.0342 -11183.4909 60.7372 -797.7914 -757.2431 28129.4005 -797.7914 -757.2431
ENERGY: 300000 0.0000 0.0000 0.0000 0.0000 -13905.4622 2434.0003 0.0000 0.0000 531.2786 -10940.1833 92.2538 -11471.4619 -10938.6640 90.1001 611.9430 669.0548 27897.7844 4.2610 4.2279
TCL: Running 100000 steps at 120 kelvin.
TCL: Setting parameter langevinTemp to 120
TCL: Running for 100000 steps
ETITLE: TS BOND ANGLE DIHED IMPRP ELECT VDW BOUNDARY MISC KINETIC TOTAL TEMP POTENTIAL TOTAL3 TEMPAVG PRESSURE GPRESSURE VOLUME PRESSAVG GPRESSAVG
ENERGY: 300000 0.0000 0.0000 0.0000 0.0000 -13905.4622 2434.0003 0.0000 0.0000 531.0293 -10940.4327 92.2105 -11471.4619 -10939.4968 92.2105 619.7048 669.3101 27897.7844 619.7048 669.3101
ENERGY: 400000 0.0000 0.0000 0.0000 0.0000 -13588.5408 2269.8718 0.0000 0.0000 699.3085 -10619.3605 121.4313 -11318.6690 -10617.2868 120.0581 -163.8577 -108.5904 28119.2374 2.8302 2.8222
TCL: Running 100000 steps at 150 kelvin.
TCL: Setting parameter langevinTemp to 150
TCL: Running for 100000 steps
ETITLE: TS BOND ANGLE DIHED IMPRP ELECT VDW BOUNDARY MISC KINETIC TOTAL TEMP POTENTIAL TOTAL3 TEMPAVG PRESSURE GPRESSURE VOLUME PRESSAVG GPRESSAVG
ENERGY: 400000 0.0000 0.0000 0.0000 0.0000 -13588.5408 2269.8718 0.0000 0.0000 698.9545 -10619.7144 121.3699 -11318.6690 -10618.1142 121.3699 -153.3319 -107.9299 28119.2374 -153.3319 -107.9299
ENERGY: 500000 0.0000 0.0000 0.0000 0.0000 -13366.7712 2244.7206 0.0000 0.0000 853.5730 -10268.4776 148.2186 -11122.0506 -10266.9073 149.6523 342.4768 406.8047 28163.9877 3.6376 3.6875
TCL: Running 100000 steps at 180 kelvin.
TCL: Setting parameter langevinTemp to 180
TCL: Running for 100000 steps
ETITLE: TS BOND ANGLE DIHED IMPRP ELECT VDW BOUNDARY MISC KINETIC TOTAL TEMP POTENTIAL TOTAL3 TEMPAVG PRESSURE GPRESSURE VOLUME PRESSAVG GPRESSAVG
ENERGY: 500000 0.0000 0.0000 0.0000 0.0000 -13366.7712 2244.7206 0.0000 0.0000 853.1448 -10268.9057 148.1442 -11122.0506 -10267.4779 148.1442 355.6627 405.7820 28163.9877 355.6627 405.7820
ENERGY: 600000 0.0000 0.0000 0.0000 0.0000 -12876.6974 2027.8169 0.0000 0.0000 1021.0563 -9827.8242 177.3012 -10848.8805 -9824.9665 179.7189 -757.5278 -742.7474 28795.9915 3.9051 3.9623
TCL: Running 100000 steps at 210 kelvin.
TCL: Setting parameter langevinTemp to 210
TCL: Running for 100000 steps
ETITLE: TS BOND ANGLE DIHED IMPRP ELECT VDW BOUNDARY MISC KINETIC TOTAL TEMP POTENTIAL TOTAL3 TEMPAVG PRESSURE GPRESSURE VOLUME PRESSAVG GPRESSAVG
ENERGY: 600000 0.0000 0.0000 0.0000 0.0000 -12876.6974 2027.8169 0.0000 0.0000 1020.5300 -9828.3506 177.2098 -10848.8805 -9826.6334 177.2098 -803.8474 -742.4766 28795.9915 -803.8474 -742.4766
ENERGY: 700000 0.0000 0.0000 0.0000 0.0000 -12309.7820 1904.3195 0.0000 0.0000 1204.8121 -9200.6504 209.2095 -10405.4625 -9197.0908 210.0943 125.5631 188.0483 28511.9866 3.1645 3.2870
TCL: Running 100000 steps at 240 kelvin.
TCL: Setting parameter langevinTemp to 240
TCL: Running for 100000 steps
ETITLE: TS BOND ANGLE DIHED IMPRP ELECT VDW BOUNDARY MISC KINETIC TOTAL TEMP POTENTIAL TOTAL3 TEMPAVG PRESSURE GPRESSURE VOLUME PRESSAVG GPRESSAVG
ENERGY: 700000 0.0000 0.0000 0.0000 0.0000 -12309.7820 1904.3195 0.0000 0.0000 1204.2065 -9201.2561 209.1043 -10405.4625 -9199.5122 209.1043 119.8495 189.1917 28511.9866 119.8495 189.1917
ENERGY: 800000 0.0000 0.0000 0.0000 0.0000 -11656.8337 1769.1451 0.0000 0.0000 1366.3871 -8521.3016 237.2661 -9887.6887 -8517.7060 239.8890 900.8053 935.8795 28514.4027 2.0883 2.2514
TCL: Running 100000 steps at 270 kelvin.
TCL: Setting parameter langevinTemp to 270
TCL: Running for 100000 steps
ETITLE: TS BOND ANGLE DIHED IMPRP ELECT VDW BOUNDARY MISC KINETIC TOTAL TEMP POTENTIAL TOTAL3 TEMPAVG PRESSURE GPRESSURE VOLUME PRESSAVG GPRESSAVG
ENERGY: 800000 0.0000 0.0000 0.0000 0.0000 -11656.8337 1769.1451 0.0000 0.0000 1365.6737 -8522.0150 237.1423 -9887.6887 -8520.3715 237.1423 854.6899 938.0807 28514.4027 854.6899 938.0807
ENERGY: 900000 0.0000 0.0000 0.0000 0.0000 -11098.9365 1573.6760 0.0000 0.0000 1558.8859 -7966.3745 270.6926 -9525.2604 -7961.5144 269.5521 291.2150 325.1590 29274.0208 2.9448 3.1733
TCL: Running 1000000 steps at 300 kelvin.
TCL: Setting parameter langevinTemp to 300
TCL: Running for 1000000 steps
ETITLE: TS BOND ANGLE DIHED IMPRP ELECT VDW BOUNDARY MISC KINETIC TOTAL TEMP POTENTIAL TOTAL3 TEMPAVG PRESSURE GPRESSURE VOLUME PRESSAVG GPRESSAVG
ENERGY: 900000 0.0000 0.0000 0.0000 0.0000 -11098.9365 1573.6760 0.0000 0.0000 1558.1179 -7967.1426 270.5592 -9525.2604 -7965.3060 270.5592 255.6497 325.6091 29274.0208 255.6497 325.6091
ENERGY: 1100000 0.0000 0.0000 0.0000 0.0000 -10416.2616 1306.7837 0.0000 0.0000 1764.2872 -7345.1907 306.3594 -9109.4779 -7342.0874 300.5889 -778.5032 -736.1483 30331.4992 3.8912 3.8240
ENERGY: 1300000 0.0000 0.0000 0.0000 0.0000 -10536.4127 1437.2561 0.0000 0.0000 1790.0609 -7309.0957 310.8349 -9099.1566 -7306.8680 300.0675 579.0687 712.2906 29392.3627 3.3013 3.2185
ENERGY: 1500000 0.0000 0.0000 0.0000 0.0000 -10446.4280 1348.0178 0.0000 0.0000 1658.8912 -7439.5190 288.0580 -9098.4101 -7438.1801 299.4388 -616.2753 -464.6497 30079.1058 3.9800 4.0188
ENERGY: 1700000 0.0000 0.0000 0.0000 0.0000 -10564.0935 1387.2713 0.0000 0.0000 1699.8398 -7476.9824 295.1685 -9176.8222 -7473.6952 301.4479 -104.4855 -109.4745 29586.2909 2.6254 2.3299
ENERGY: 1900000 0.0000 0.0000 0.0000 0.0000 -10550.1204 1413.5550 0.0000 0.0000 1706.2039 -7430.3615 296.2736 -9136.5654 -7426.3698 300.1593 -345.5333 -223.5016 30567.3406 3.8316 3.7832
TCL: Exiting due to exit command.
