Info: SIMULATION PARAMETERS:
Info: TIMESTEP               2
Info: NUMBER OF STEPS        0
Info: STEPS PER CYCLE        10
Info: PERIODIC CELL BASIS 1  42.812 0 0
Info: PERIODIC CELL BASIS 2  0 43.18 0
Info: PERIODIC CELL BASIS 3  0 0 39.561
Info: PERIODIC CELL CENTER   0 0 0
Info: WRAPPING WATERS AROUND PERIODIC BOUNDARIES ON OUTPUT.
Info: WRAPPING ALL CLUSTERS AROUND PERIODIC BOUNDARIES ON OUTPUT.
Info: FIRST LDB TIMESTEP     50
Info: LAST LDB TIMESTEP     -1
Info: HOM BACKGROUND SCALING 1
Info: PME BACKGROUND SCALING 1
Info: MIN ATOMS PER PATCH    40
Info: EMPTY PATCH LOAD       40 ATOMS
Info: INITIAL TEMPERATURE    300
Info: CENTER OF MASS MOVING INITIALLY? NO
Info: DIELECTRIC             1
Info: EXCLUDE                SCALED ONE-FOUR
Info: 1-4 ELECTROSTATICS SCALED BY 0.833333
Info: MODIFIED 1-4 VDW PARAMETERS WILL BE USED
Info: DCD FILENAME           mobley_3715043_min.dcd
Info: DCD FREQUENCY          5000
Info: DCD FIRST STEP         5000
Info: DCD FILE WILL CONTAIN UNIT CELL DATA
Info: XST FILENAME           mobley_3715043_min.xst
Info: XST FREQUENCY          5000
Info: NO VELOCITY DCD OUTPUT
Info: NO FORCE DCD OUTPUT
Info: OUTPUT FILENAME        mobley_3715043_min
Info: BINARY OUTPUT FILES WILL BE USED
Info: RESTART FILENAME       mobley_3715043_min.restart
Info: RESTART FREQUENCY      5000
Info: BINARY RESTART FILES WILL BE USED
Info: CUTOFF                 9
Info: PAIRLIST DISTANCE      11
Info: PAIRLIST SHRINK RATE   0.01
Info: PAIRLIST GROW RATE     0.01
Info: PAIRLIST TRIGGER       0.3
Info: PAIRLISTS PER CYCLE    2
Info: PAIRLISTS ENABLED
Info: MARGIN                 8
Info: HYDROGEN GROUP CUTOFF  2.5
Info: PATCH DIMENSION        21.5
Info: ENERGY OUTPUT STEPS    5000
Info: ENERGY EVALUATION STEPS    5000
Info: OUTPUT ENERGY PRECISION 4
Info: CROSSTERM ENERGY INCLUDED IN DIHEDRAL
Info: TIMING OUTPUT STEPS    50000
Info: PRESSURE OUTPUT STEPS  5000
Info: LANGEVIN DYNAMICS ACTIVE
Info: LANGEVIN TEMPERATURE   300
Info: LANGEVIN USING BBK INTEGRATOR
Info: LANGEVIN DAMPING COEFFICIENT IS 1 INVERSE PS
Info: LANGEVIN DYNAMICS APPLIED TO HYDROGENS
Info: LANGEVIN PISTON PRESSURE CONTROL ACTIVE
Info:        TARGET PRESSURE IS 1.01325 BAR
Info:     OSCILLATION PERIOD IS 50 FS
Info:             DECAY TIME IS 25 FS
Info:     PISTON TEMPERATURE IS 300 K
Info:       PRESSURE CONTROL IS GROUP-BASED
Info:    INITIAL STRAIN RATE IS 0 0 0
Info:       CELL FLUCTUATION IS ISOTROPIC
Info: PARTICLE MESH EWALD (PME) ACTIVE
Info: PME TOLERANCE               1e-06
Info: PME EWALD COEFFICIENT       0.348832
Info: PME INTERPOLATION ORDER     4
Info: PME GRID DIMENSIONS         44 44 40
Info: PME MAXIMUM GRID SPACING    1
Info: FULL ELECTROSTATIC EVALUATION FREQUENCY      2
Info: USING VERLET I (r-RESPA) MTS SCHEME.
Info: C1 SPLITTING OF LONG RANGE ELECTROSTATICS
Info: PLACING ATOMS IN PATCHES BY HYDROGEN GROUPS
Info: RIGID BONDS TO HYDROGEN : ALL
Info:         ERROR TOLERANCE : 1e-08
Info:          MAX ITERATIONS : 100
Info: RIGID WATER USING SETTLE ALGORITHM
Info: RANDOM NUMBER SEED     1741328577
Info: USE HYDROGEN BONDS?    NO
Info: Using AMBER format force field!
Info: AMBER PARM FILE        mobley_3715043.prmtop
Info: COORDINATE PDB         mobley_3715043.pdb
Info: Exclusions will be read from PARM file!
Info: SCNB (VDW SCALING)     2
Info: USING ARITHMETIC MEAN TO COMBINE L-J SIGMA PARAMETERS
Info: SUMMARY OF PARAMETERS:
Info: 6 BONDS
Info: 5 ANGLES
Info:   5 HARMONIC
Info:   0 COSINE-BASED
Info: 3 DIHEDRAL
Info: 0 IMPROPER
Info: 0 CROSSTERM
Info: 0 VDW
Info: 21 VDW_PAIRS
Info: 0 NBTHOLE_PAIRS
Info: STRUCTURE SUMMARY:
Info: 5193 ATOMS
Info: 5194 BONDS
Info: 42 ANGLES
Info: 64 DIHEDRALS
Info: 0 IMPROPERS
Info: 0 CROSSTERMS
Info: 5286 EXCLUSIONS
Info: 5181 RIGID BONDS
Info: 10398 DEGREES OF FREEDOM
Info: 1735 HYDROGEN GROUPS
Info: 4 ATOMS IN LARGEST HYDROGEN GROUP
Info: 1735 MIGRATION GROUPS
Info: 4 ATOMS IN LARGEST MIGRATION GROUP
Info: TOTAL MASS = 31197.8 amu
Info: TOTAL CHARGE = -0.000100028 e
Info: MASS DENSITY = 0.708382 g/cm^3
Info: ATOM DENSITY = 0.0710073 atoms/A^3
Info: ADDED 0 IMPLICIT EXCLUSIONS
Info: NONBONDED TABLE R-SQUARED SPACING: 0.0625
Info: NONBONDED TABLE SIZE: 705 POINTS
Info: REMOVING COM VELOCITY 0.154792 0.0546818 0.032223
TCL: Minimizing for 2000 steps
ETITLE: TS BOND ANGLE DIHED IMPRP ELECT VDW BOUNDARY MISC KINETIC TOTAL TEMP POTENTIAL TOTAL3 TEMPAVG PRESSURE GPRESSURE VOLUME PRESSAVG GPRESSAVG
ENERGY: 0 0.3431 0.9423 0.0001 0.0000 -16034.8952 1774.7533 0.0000 0.0000 0.0000 -14258.8564 0.0000 -14258.8564 -14258.8564 0.0000 10655.1293 -15086.3678 73133.3413 10655.1293 -15086.3678
ENERGY: 400 42.7844 28.7151 2.4072 0.0000 -21869.0911 3282.4344 0.0000 0.0000 0.0000 -18512.7500 0.0000 -18512.7500 -18512.7500 0.0000 15944.1728 12225.6933 73133.3413 15944.1728 12225.6933
ENERGY: 800 1.8964 1.1297 0.0932 0.0000 -22955.1780 3728.9585 0.0000 0.0000 0.0000 -19223.1002 0.0000 -19223.1002 -19223.1002 0.0000 17871.4034 14047.5801 73133.3413 17871.4034 14047.5801
ENERGY: 1200 1.2554 0.6911 0.0352 0.0000 -23428.1323 3961.2263 0.0000 0.0000 0.0000 -19464.9242 0.0000 -19464.9242 -19464.9242 0.0000 18892.5720 14965.5089 73133.3413 18892.5720 14965.5089
ENERGY: 1600 1.0683 0.6526 0.0457 0.0000 -23615.8383 4050.4310 0.0000 0.0000 0.0000 -19563.6407 0.0000 -19563.6407 -19563.6407 0.0000 19326.5047 15277.8819 73133.3413 19326.5047 15277.8819
ENERGY: 2000 0.9153 0.6942 0.2559 0.0000 -23750.4195 4107.6722 0.0000 0.0000 0.0000 -19640.8818 0.0000 -19640.8818 -19640.8818 0.0000 19629.2116 15678.1487 73133.3413 19629.2116 15678.1487
TCL: Exiting due to exit command.
Info: NAMD 3.0.1 for Linux-x86_64-multicore
Info: Please visit http://www.ks.uiuc.edu/Research/namd/
Info: for updates, documentation, and support information.
Info: Please cite Phillips et al., J. Chem. Phys. 153:044130 (2020) doi:10.1063/5.0014475
Info: in all publications reporting results obtained with NAMD.
Info: Based on Charm++/Converse 80000 for multicore-linux-x86_64-gcc
Info: Built Mon Oct 14 11:11:06 CDT 2024 by dhardy on athine.ks.uiuc.edu
Info: 1 NAMD  3.0.1  Linux-x86_64-multicore  16    k084  z5358697
Info: Running on 16 processors, 1 nodes, 1 physical nodes.
Info: CPU topology information available.
Info: Charm++/Converse parallel runtime startup completed at 0.0113454 s
Info: 1043.61 MB of memory in use based on /proc/self/stat
Info: Configuration file is mobley_3715043_equil.namd
Info: Working in the current directory /srv/scratch/z5358697/prod_prep_4/3715043
TCL: Running 25000 steps at 30 kelvin.
TCL: Suspending until startup complete.
Info: SIMULATION PARAMETERS:
Info: TIMESTEP               2
Info: NUMBER OF STEPS        0
Info: STEPS PER CYCLE        10
Info: PERIODIC CELL BASIS 1  42.812 0 0
Info: PERIODIC CELL BASIS 2  0 43.18 0
Info: PERIODIC CELL BASIS 3  0 0 39.561
Info: PERIODIC CELL CENTER   0 0 0
Info: WRAPPING WATERS AROUND PERIODIC BOUNDARIES ON OUTPUT.
Info: WRAPPING ALL CLUSTERS AROUND PERIODIC BOUNDARIES ON OUTPUT.
Info: FIRST LDB TIMESTEP     50
Info: LAST LDB TIMESTEP     -1
Info: HOM BACKGROUND SCALING 1
Info: PME BACKGROUND SCALING 1
Info: MIN ATOMS PER PATCH    40
Info: EMPTY PATCH LOAD       40 ATOMS
Info: INITIAL TEMPERATURE    300
Info: CENTER OF MASS MOVING INITIALLY? NO
Info: DIELECTRIC             1
Info: EXCLUDE                SCALED ONE-FOUR
Info: 1-4 ELECTROSTATICS SCALED BY 0.833333
Info: MODIFIED 1-4 VDW PARAMETERS WILL BE USED
Info: DCD FILENAME           mobley_3715043_equil.dcd
Info: DCD FREQUENCY          5000
Info: DCD FIRST STEP         5000
Info: DCD FILE WILL CONTAIN UNIT CELL DATA
Info: XST FILENAME           mobley_3715043_equil.xst
Info: XST FREQUENCY          5000
Info: NO VELOCITY DCD OUTPUT
Info: NO FORCE DCD OUTPUT
Info: OUTPUT FILENAME        mobley_3715043_equil
Info: BINARY OUTPUT FILES WILL BE USED
Info: RESTART FILENAME       mobley_3715043_equil.restart
Info: RESTART FREQUENCY      5000
Info: BINARY RESTART FILES WILL BE USED
Info: CUTOFF                 9
Info: PAIRLIST DISTANCE      11
Info: PAIRLIST SHRINK RATE   0.01
Info: PAIRLIST GROW RATE     0.01
Info: PAIRLIST TRIGGER       0.3
Info: PAIRLISTS PER CYCLE    2
Info: PAIRLISTS ENABLED
Info: MARGIN                 8
Info: HYDROGEN GROUP CUTOFF  2.5
Info: PATCH DIMENSION        21.5
Info: ENERGY OUTPUT STEPS    5000
Info: ENERGY EVALUATION STEPS    5000
Info: OUTPUT ENERGY PRECISION 4
Info: CROSSTERM ENERGY INCLUDED IN DIHEDRAL
Info: TIMING OUTPUT STEPS    50000
Info: PRESSURE OUTPUT STEPS  5000
Info: LANGEVIN DYNAMICS ACTIVE
Info: LANGEVIN TEMPERATURE   30
Info: LANGEVIN USING BBK INTEGRATOR
Info: LANGEVIN DAMPING COEFFICIENT IS 1 INVERSE PS
Info: LANGEVIN DYNAMICS APPLIED TO HYDROGENS
Info: LANGEVIN PISTON PRESSURE CONTROL ACTIVE
Info:        TARGET PRESSURE IS 1.01325 BAR
Info:     OSCILLATION PERIOD IS 50 FS
Info:             DECAY TIME IS 25 FS
Info:     PISTON TEMPERATURE IS 300 K
Info:       PRESSURE CONTROL IS GROUP-BASED
Info:    INITIAL STRAIN RATE IS 0 0 0
Info:       CELL FLUCTUATION IS ISOTROPIC
Info: PARTICLE MESH EWALD (PME) ACTIVE
Info: PME TOLERANCE               1e-06
Info: PME EWALD COEFFICIENT       0.348832
Info: PME INTERPOLATION ORDER     4
Info: PME GRID DIMENSIONS         44 44 40
Info: PME MAXIMUM GRID SPACING    1
Info: FULL ELECTROSTATIC EVALUATION FREQUENCY      2
Info: USING VERLET I (r-RESPA) MTS SCHEME.
Info: C1 SPLITTING OF LONG RANGE ELECTROSTATICS
Info: PLACING ATOMS IN PATCHES BY HYDROGEN GROUPS
Info: RIGID BONDS TO HYDROGEN : ALL
Info:         ERROR TOLERANCE : 1e-08
Info:          MAX ITERATIONS : 100
Info: RIGID WATER USING SETTLE ALGORITHM
Info: RANDOM NUMBER SEED     1741328595
Info: USE HYDROGEN BONDS?    NO
Info: Using AMBER format force field!
Info: AMBER PARM FILE        mobley_3715043.prmtop
Info: COORDINATE PDB         mobley_3715043.pdb
Info: Exclusions will be read from PARM file!
Info: SCNB (VDW SCALING)     2
Info: USING ARITHMETIC MEAN TO COMBINE L-J SIGMA PARAMETERS
Info: BINARY COORDINATES     mobley_3715043_min.coor
Info: SUMMARY OF PARAMETERS:
Info: 6 BONDS
Info: 5 ANGLES
Info:   5 HARMONIC
Info:   0 COSINE-BASED
Info: 3 DIHEDRAL
Info: 0 IMPROPER
Info: 0 CROSSTERM
Info: 0 VDW
Info: 21 VDW_PAIRS
Info: 0 NBTHOLE_PAIRS
Info: STRUCTURE SUMMARY:
Info: 5193 ATOMS
Info: 5194 BONDS
Info: 42 ANGLES
Info: 64 DIHEDRALS
Info: 0 IMPROPERS
Info: 0 CROSSTERMS
Info: 5286 EXCLUSIONS
Info: 5181 RIGID BONDS
Info: 10398 DEGREES OF FREEDOM
Info: 1735 HYDROGEN GROUPS
Info: 4 ATOMS IN LARGEST HYDROGEN GROUP
Info: 1735 MIGRATION GROUPS
Info: 4 ATOMS IN LARGEST MIGRATION GROUP
Info: TOTAL MASS = 31197.8 amu
Info: TOTAL CHARGE = -0.000100028 e
Info: MASS DENSITY = 0.708382 g/cm^3
Info: ATOM DENSITY = 0.0710073 atoms/A^3
Info: ADDED 0 IMPLICIT EXCLUSIONS
Info: NONBONDED TABLE R-SQUARED SPACING: 0.0625
Info: NONBONDED TABLE SIZE: 705 POINTS
Info: REMOVING COM VELOCITY -0.0072887 -0.0384761 -0.0945878
TCL: Running for 25000 steps
ETITLE: TS BOND ANGLE DIHED IMPRP ELECT VDW BOUNDARY MISC KINETIC TOTAL TEMP POTENTIAL TOTAL3 TEMPAVG PRESSURE GPRESSURE VOLUME PRESSAVG GPRESSAVG
ENERGY: 0 0.9153 0.6942 0.2559 0.0000 -23750.4195 4107.6722 0.0000 0.0000 3126.7865 -16514.0953 302.6487 -19640.8818 -16513.4543 302.6487 260.9304 304.7173 73133.3413 260.9304 304.7173
ENERGY: 5000 0.8690 1.2831 0.4662 0.0000 -24935.7864 4381.2551 0.0000 0.0000 313.1316 -20238.7812 30.3087 -20551.9129 -20238.0605 47.6602 98.2909 165.9613 51199.3180 1.6668 1.7724
ENERGY: 10000 1.4140 1.4655 0.4958 0.0000 -25031.7413 4437.0325 0.0000 0.0000 316.7058 -20274.6277 30.6547 -20591.3336 -20274.1682 30.3214 320.4881 391.4790 51020.5674 1.7122 1.7732
ENERGY: 15000 1.2393 1.1973 0.6021 0.0000 -24991.8761 4376.0085 0.0000 0.0000 313.7236 -20299.1052 30.3660 -20612.8289 -20298.2866 30.2596 19.5804 78.0013 51050.3591 3.4837 3.4757
ENERGY: 20000 1.2880 0.9898 0.3812 0.0000 -24997.9411 4364.3719 0.0000 0.0000 314.4084 -20316.5018 30.4323 -20630.9102 -20315.8742 30.2380 -72.4857 -20.6399 51004.2149 3.6618 3.6836
ENERGY: 25000 1.7059 1.7879 0.2298 0.0000 -25011.0687 4344.9758 0.0000 0.0000 307.8068 -20354.5625 29.7933 -20662.3693 -20353.9905 30.0684 -287.0128 -221.1339 50956.9029 1.1407 1.4697
TCL: Running 25000 steps at 60 kelvin.
TCL: Setting parameter langevinTemp to 60
TCL: Running for 25000 steps
ETITLE: TS BOND ANGLE DIHED IMPRP ELECT VDW BOUNDARY MISC KINETIC TOTAL TEMP POTENTIAL TOTAL3 TEMPAVG PRESSURE GPRESSURE VOLUME PRESSAVG GPRESSAVG
ENERGY: 25000 1.7059 1.7879 0.2298 0.0000 -25011.0687 4344.9758 0.0000 0.0000 307.6518 -20354.7175 29.7783 -20662.3693 -20354.0674 29.7783 -274.9782 -221.1331 50956.9029 -274.9782 -221.1331
ENERGY: 30000 1.2364 1.1950 1.1361 0.0000 -24739.6138 4321.2325 0.0000 0.0000 611.5328 -19803.2810 59.1916 -20414.8138 -19801.5227 56.8722 257.8069 286.5212 50889.4267 5.1550 5.3907
ENERGY: 35000 2.0875 2.1945 0.6221 0.0000 -24672.0471 4216.7489 0.0000 0.0000 619.4314 -19830.9627 59.9562 -20450.3941 -19829.4261 60.4248 -330.2406 -278.6554 50970.3669 3.8543 3.6961
ENERGY: 40000 1.4645 1.6151 0.5419 0.0000 -24699.5878 4245.1944 0.0000 0.0000 638.2211 -19812.5509 61.7749 -20450.7720 -19810.9530 59.9185 -130.5406 -80.7507 50757.6562 2.2514 2.4684
ENERGY: 45000 2.1317 1.7975 0.4822 0.0000 -24501.7499 4025.3692 0.0000 0.0000 614.8637 -19857.1058 59.5140 -20471.9694 -19855.0452 60.0566 -1293.1114 -1240.7236 51200.8664 0.5945 0.4381
ENERGY: 50000 2.1379 1.9890 1.2230 0.0000 -24909.8304 4438.0245 0.0000 0.0000 607.1709 -19859.2851 58.7694 -20466.4560 -19857.8973 60.2457 762.2225 817.9199 50634.5398 2.6713 2.7312
TCL: Running 25000 steps at 90 kelvin.
TCL: Setting parameter langevinTemp to 90
TCL: Running for 25000 steps
ETITLE: TS BOND ANGLE DIHED IMPRP ELECT VDW BOUNDARY MISC KINETIC TOTAL TEMP POTENTIAL TOTAL3 TEMPAVG PRESSURE GPRESSURE VOLUME PRESSAVG GPRESSAVG
ENERGY: 50000 2.1379 1.9890 1.2230 0.0000 -24909.8304 4438.0245 0.0000 0.0000 606.8658 -19859.5902 58.7399 -20466.4560 -19858.4220 58.7399 762.2666 817.8731 50634.5398 762.2666 817.8731
ENERGY: 55000 1.9249 3.3155 1.1510 0.0000 -24610.4762 4395.8273 0.0000 0.0000 920.1476 -19288.1098 89.0632 -20208.2574 -19286.1696 86.9900 1009.4170 1058.1815 51053.1723 -0.6227 -0.4397
ENERGY: 60000 2.2529 1.9423 0.8460 0.0000 -24505.6654 4327.3787 0.0000 0.0000 923.0716 -19250.1739 89.3462 -20173.2455 -19248.0353 89.7703 838.1415 918.7360 50844.3883 5.5679 5.3299
ENERGY: 65000 1.8990 3.1785 3.1023 0.0000 -24474.6478 4240.2330 0.0000 0.0000 920.9926 -19305.2424 89.1449 -20226.2350 -19302.7424 90.8152 351.7197 402.1068 50946.5948 1.1121 1.3666
ENERGY: 70000 1.7790 2.8284 2.6103 0.0000 -24376.8995 4142.5939 0.0000 0.0000 943.3446 -19283.7434 91.3084 -20227.0880 -19281.3796 90.1476 -139.8323 -79.4251 50888.8841 2.7706 2.8373
ENERGY: 75000 1.9294 4.5852 1.1547 0.0000 -24355.0632 4083.1004 0.0000 0.0000 929.7986 -19334.4949 89.9973 -20264.2935 -19332.2107 90.4252 -480.3161 -439.1360 50865.6144 1.1769 1.4187
TCL: Running 25000 steps at 120 kelvin.
TCL: Setting parameter langevinTemp to 120
TCL: Running for 25000 steps
ETITLE: TS BOND ANGLE DIHED IMPRP ELECT VDW BOUNDARY MISC KINETIC TOTAL TEMP POTENTIAL TOTAL3 TEMPAVG PRESSURE GPRESSURE VOLUME PRESSAVG GPRESSAVG
ENERGY: 75000 1.9294 4.5852 1.1547 0.0000 -24355.0632 4083.1004 0.0000 0.0000 929.3449 -19334.9486 89.9534 -20264.2935 -19332.8736 89.9534 -490.0236 -438.8345 50865.6144 -490.0236 -438.8345
ENERGY: 80000 2.0925 4.5882 3.3859 0.0000 -23989.7937 4052.8953 0.0000 0.0000 1262.4362 -18664.3955 122.1940 -19926.8317 -18660.9984 116.5556 163.7144 199.9199 50923.1951 5.0329 4.8501
ENERGY: 85000 1.2070 3.5529 1.4816 0.0000 -23899.6434 3911.0849 0.0000 0.0000 1229.5955 -18752.7216 119.0153 -19982.3171 -18749.7305 119.8282 -553.5110 -485.8915 50840.5821 -1.8927 -2.1447
ENERGY: 90000 4.0144 3.4508 2.3480 0.0000 -23978.3779 3997.5520 0.0000 0.0000 1247.2866 -18723.7261 120.7277 -19971.0127 -18720.0663 120.7569 -175.0580 -121.0847 50757.8347 4.5888 4.4387
ENERGY: 95000 3.6826 2.1277 1.6258 0.0000 -23917.7947 3908.5591 0.0000 0.0000 1267.8667 -18733.9328 122.7197 -20001.7995 -18732.2381 120.4692 -683.3342 -669.4730 50919.0351 0.3540 0.3282
ENERGY: 100000 1.7466 2.7455 2.6117 0.0000 -24113.6465 4059.3728 0.0000 0.0000 1259.3181 -18787.8519 121.8922 -20047.1699 -18784.6840 119.7323 -17.9283 84.4674 50523.0835 4.2672 4.4874
TCL: Running 25000 steps at 150 kelvin.
TCL: Setting parameter langevinTemp to 150
TCL: Running for 25000 steps
ETITLE: TS BOND ANGLE DIHED IMPRP ELECT VDW BOUNDARY MISC KINETIC TOTAL TEMP POTENTIAL TOTAL3 TEMPAVG PRESSURE GPRESSURE VOLUME PRESSAVG GPRESSAVG
ENERGY: 100000 1.7466 2.7455 2.6117 0.0000 -24113.6465 4059.3728 0.0000 0.0000 1258.7199 -18788.4501 121.8343 -20047.1699 -18785.8549 121.8343 26.0264 85.1359 50523.0835 26.0264 85.1359
ENERGY: 105000 3.5264 3.0111 3.8615 0.0000 -23513.6583 3799.0660 0.0000 0.0000 1600.8077 -18103.3856 154.9458 -19704.1933 -18098.6787 146.8218 -538.9028 -508.8054 51066.0797 7.4033 7.1421
ENERGY: 110000 4.5545 3.4335 2.8246 0.0000 -23612.0217 3916.2465 0.0000 0.0000 1569.3392 -18115.6234 151.8999 -19684.9627 -18112.0632 149.8157 94.4395 170.8048 50761.4040 3.2939 3.7332
ENERGY: 115000 3.0206 3.1878 1.3847 0.0000 -23471.1116 3796.2080 0.0000 0.0000 1560.5685 -18106.7421 151.0509 -19667.3106 -18103.8499 150.9938 -342.0654 -283.7137 50710.4630 3.6544 3.3304
ENERGY: 120000 1.8232 2.8018 1.7528 0.0000 -23460.7028 3731.4330 0.0000 0.0000 1519.9390 -18202.9530 147.1183 -19722.8920 -18199.2919 149.7921 -905.3161 -854.5378 51165.5276 4.4447 4.8954
ENERGY: 125000 1.9462 4.1610 2.3337 0.0000 -23619.7472 3854.9885 0.0000 0.0000 1586.3856 -18169.9323 153.5498 -19756.3178 -18166.6631 150.3529 -258.1486 -244.4386 50899.7196 5.1634 5.3272
TCL: Running 50000 steps at 180 kelvin.
TCL: Setting parameter langevinTemp to 180
TCL: Running for 50000 steps
ETITLE: TS BOND ANGLE DIHED IMPRP ELECT VDW BOUNDARY MISC KINETIC TOTAL TEMP POTENTIAL TOTAL3 TEMPAVG PRESSURE GPRESSURE VOLUME PRESSAVG GPRESSAVG
ENERGY: 125000 1.9462 4.1610 2.3337 0.0000 -23619.7472 3854.9885 0.0000 0.0000 1585.6471 -18170.6707 153.4783 -19756.3178 -18167.2094 153.4783 -296.9671 -244.1600 50899.7196 -296.9671 -244.1600
ENERGY: 135000 2.1857 4.6045 2.0884 0.0000 -22960.2547 3683.3063 0.0000 0.0000 1852.7545 -17415.3153 179.3323 -19268.0698 -17410.2077 178.5965 -134.8470 -87.3003 51260.5471 1.3379 1.4601
ENERGY: 145000 2.2062 4.4794 2.6193 0.0000 -22801.2310 3503.8754 0.0000 0.0000 1858.4020 -17429.6487 179.8789 -19288.0506 -17424.9725 179.6440 -1095.2333 -1030.4596 51106.8800 0.1754 0.1122
ENERGY: 155000 2.5703 5.0229 4.3948 0.0000 -23082.6067 3812.2530 0.0000 0.0000 1793.8498 -17464.5159 173.6308 -19258.3657 -17462.0941 180.2793 415.4736 483.0286 50572.8104 3.2995 3.6694
ENERGY: 165000 2.6871 3.2974 2.7053 0.0000 -22974.8784 3684.2400 0.0000 0.0000 1871.7658 -17410.1829 181.1724 -19281.9486 -17405.1645 180.8459 2.4196 42.5432 50593.8790 6.0482 5.7122
ENERGY: 175000 4.9603 5.9361 1.5966 0.0000 -22845.6776 3567.3670 0.0000 0.0000 1845.7797 -17420.0379 178.6572 -19265.8176 -17414.8123 180.5640 -732.9855 -734.4142 51024.9239 2.4681 2.7300
TCL: Running 50000 steps at 210 kelvin.
TCL: Setting parameter langevinTemp to 210
TCL: Running for 50000 steps
ETITLE: TS BOND ANGLE DIHED IMPRP ELECT VDW BOUNDARY MISC KINETIC TOTAL TEMP POTENTIAL TOTAL3 TEMPAVG PRESSURE GPRESSURE VOLUME PRESSAVG GPRESSAVG
ENERGY: 175000 4.9603 5.9361 1.5966 0.0000 -22845.6776 3567.3670 0.0000 0.0000 1844.8350 -17420.9826 178.5657 -19265.8176 -17416.7268 178.5657 -788.9322 -733.9258 51024.9239 -788.9322 -733.9258
ENERGY: 185000 5.1403 5.9916 4.4436 0.0000 -21877.3938 3371.9219 0.0000 0.0000 2168.1459 -16321.7505 209.8597 -18489.8965 -16317.4636 210.1179 62.8225 111.5093 50880.6587 -0.2546 -0.4638
ENERGY: 195000 5.2886 5.4980 5.3108 0.0000 -21924.8186 3369.2247 0.0000 0.0000 2171.3558 -16368.1407 210.1704 -18539.4965 -16365.8175 210.0340 18.5454 90.8862 50814.2977 0.5208 0.8421
ENERGY: 205000 2.7132 2.6504 1.4361 0.0000 -21722.3273 3286.4215 0.0000 0.0000 2172.7432 -16256.3629 210.3047 -18429.1062 -16249.5504 211.9637 -212.8139 -139.1889 50902.4595 4.4209 4.1278
ENERGY: 215000 2.1974 8.2765 2.0148 0.0000 -21946.2938 3470.7024 0.0000 0.0000 2166.2895 -16296.8131 209.6800 -18463.1027 -16292.8574 210.6817 599.5777 648.8576 51096.0919 -5.7993 -5.1538
ENERGY: 225000 2.7413 2.6659 3.7781 0.0000 -21724.5827 3282.9649 0.0000 0.0000 2164.5067 -16267.9256 209.5075 -18432.4324 -16263.0342 210.2871 -136.6231 -59.8944 50579.5754 0.8735 0.9529
TCL: Running 50000 steps at 240 kelvin.
TCL: Setting parameter langevinTemp to 240
TCL: Running for 50000 steps
ETITLE: TS BOND ANGLE DIHED IMPRP ELECT VDW BOUNDARY MISC KINETIC TOTAL TEMP POTENTIAL TOTAL3 TEMPAVG PRESSURE GPRESSURE VOLUME PRESSAVG GPRESSAVG
ENERGY: 225000 2.7413 2.6659 3.7781 0.0000 -21724.5827 3282.9649 0.0000 0.0000 2163.4015 -16269.0309 209.4005 -18432.4324 -16265.3276 209.4005 -144.4156 -60.3368 50579.5754 -144.4156 -60.3368
ENERGY: 235000 4.6451 4.0467 1.8721 0.0000 -20573.7333 2861.0767 0.0000 0.0000 2451.2036 -15250.8891 237.2575 -17702.0927 -15245.2136 239.9875 -798.7711 -701.6327 51152.1768 3.0301 3.3325
ENERGY: 245000 2.7796 10.1278 3.3432 0.0000 -20745.7303 2954.5856 0.0000 0.0000 2435.6624 -15339.2318 235.7532 -17774.8941 -15333.2733 240.0361 -338.2946 -261.2990 50613.0428 3.9066 3.7519
ENERGY: 255000 3.5864 8.9824 3.0987 0.0000 -20614.2059 2922.0663 0.0000 0.0000 2491.5982 -15184.8739 241.1674 -17676.4722 -15179.5771 238.8420 -306.2522 -196.5636 50801.7094 3.4599 3.7965
ENERGY: 265000 2.7175 7.1029 1.7325 0.0000 -20596.1311 2916.4123 0.0000 0.0000 2481.9473 -15186.2185 240.2333 -17668.1658 -15180.5746 239.6735 -447.0443 -335.2371 50909.0262 7.0246 6.5661
ENERGY: 275000 3.1976 8.3000 5.8975 0.0000 -20626.0976 2887.7266 0.0000 0.0000 2459.4380 -15261.5379 238.0545 -17720.9759 -15255.4026 239.7506 -727.8058 -666.5878 51356.4348 -3.1041 -2.2812
TCL: Running 50000 steps at 270 kelvin.
TCL: Setting parameter langevinTemp to 270
TCL: Running for 50000 steps
ETITLE: TS BOND ANGLE DIHED IMPRP ELECT VDW BOUNDARY MISC KINETIC TOTAL TEMP POTENTIAL TOTAL3 TEMPAVG PRESSURE GPRESSURE VOLUME PRESSAVG GPRESSAVG
ENERGY: 275000 3.1976 8.3000 5.8975 0.0000 -20626.0976 2887.7266 0.0000 0.0000 2458.1757 -15262.8002 237.9324 -17720.9759 -15258.3831 237.9324 -747.9390 -665.6292 51356.4348 -747.9390 -665.6292
ENERGY: 285000 3.4148 8.4821 5.1283 0.0000 -19823.5088 2734.1138 0.0000 0.0000 2801.3793 -14270.9904 271.1518 -17072.3697 -14265.7870 267.0293 -425.6573 -286.0043 52159.6504 0.9465 0.8395
ENERGY: 295000 3.0295 9.8191 4.3951 0.0000 -19604.3650 2673.2056 0.0000 0.0000 2797.1411 -14116.7746 270.7416 -16913.9158 -14109.5171 269.6382 -315.4490 -271.2224 52251.2393 1.5591 1.7478
ENERGY: 305000 3.7669 5.6307 4.0495 0.0000 -19814.2230 2770.9554 0.0000 0.0000 2877.5720 -14152.2485 278.5267 -17029.8205 -14146.3072 269.7410 132.6904 250.4842 51703.1800 0.2220 0.7759
ENERGY: 315000 3.1257 6.3039 1.6664 0.0000 -19937.3596 2882.6316 0.0000 0.0000 2775.2765 -14268.3554 268.6252 -17043.6320 -14258.4942 272.6168 543.7466 603.3150 51961.2174 2.4077 2.3159
ENERGY: 325000 2.0810 9.4592 5.1134 0.0000 -19515.0608 2635.1417 0.0000 0.0000 2811.7056 -14051.5599 272.1513 -16863.2654 -14045.4564 270.9437 -418.7707 -329.6900 52396.4402 8.2921 8.2704
TCL: Running 1000000 steps at 300 kelvin.
TCL: Setting parameter langevinTemp to 300
TCL: Running for 1000000 steps
ETITLE: TS BOND ANGLE DIHED IMPRP ELECT VDW BOUNDARY MISC KINETIC TOTAL TEMP POTENTIAL TOTAL3 TEMPAVG PRESSURE GPRESSURE VOLUME PRESSAVG GPRESSAVG
ENERGY: 325000 2.0810 9.4592 5.1134 0.0000 -19515.0608 2635.1417 0.0000 0.0000 2810.3862 -14052.8792 272.0236 -16863.2654 -14048.6619 272.0236 -415.0208 -329.5643 52396.4402 -415.0208 -329.5643
ENERGY: 525000 3.1808 7.9017 5.1695 0.0000 -18799.3945 2475.0414 0.0000 0.0000 3085.2351 -13222.8661 298.6268 -16308.1012 -13220.5236 299.6111 -282.9409 -178.7265 53155.7383 -0.6545 -1.1022
ENERGY: 725000 4.4130 5.6091 4.0551 0.0000 -18736.8295 2483.3039 0.0000 0.0000 3092.4360 -13147.0123 299.3238 -16239.4483 -13142.3363 300.5658 -287.3080 -175.1037 53918.8020 3.2532 3.6190
ENERGY: 925000 5.6185 3.6924 2.3734 0.0000 -18917.2921 2602.5779 0.0000 0.0000 3115.4787 -13187.5511 301.5542 -16303.0298 -13184.1664 299.6932 334.0189 433.7375 53055.9968 3.4787 2.9703
ENERGY: 1125000 3.9070 7.8090 2.1936 0.0000 -18677.0287 2430.5572 0.0000 0.0000 3128.2994 -13104.2625 302.7951 -16232.5620 -13094.8824 300.1178 -262.2232 -195.1063 53502.7531 1.7894 2.1948
ENERGY: 1325000 4.6482 14.0115 2.7585 0.0000 -18758.4574 2472.6397 0.0000 0.0000 3109.1612 -13155.2381 300.9427 -16264.3994 -13148.8709 300.7095 -238.5920 -113.4988 53256.4225 2.3706 2.1390
TCL: Exiting due to exit command.
