Info: SIMULATION PARAMETERS:
Info: TIMESTEP               2
Info: NUMBER OF STEPS        0
Info: STEPS PER CYCLE        10
Info: PERIODIC CELL BASIS 1  31.0078 0 0
Info: PERIODIC CELL BASIS 2  0 30.3644 0
Info: PERIODIC CELL BASIS 3  0 0 32.0829
Info: PERIODIC CELL CENTER   0 0 0
Info: WRAPPING WATERS AROUND PERIODIC BOUNDARIES ON OUTPUT.
Info: WRAPPING ALL CLUSTERS AROUND PERIODIC BOUNDARIES ON OUTPUT.
Info: FIRST LDB TIMESTEP     50
Info: LAST LDB TIMESTEP     -1
Info: HOM BACKGROUND SCALING 1
Info: PME BACKGROUND SCALING 1
Info: MIN ATOMS PER PATCH    40
Info: EMPTY PATCH LOAD       40 ATOMS
Info: VELOCITY FILE          mobley_9246351_equil.vel
Info: CENTER OF MASS MOVING INITIALLY? NO
Info: DIELECTRIC             1
Info: EXCLUDE                SCALED ONE-FOUR
Info: 1-4 ELECTROSTATICS SCALED BY 0.833333
Info: MODIFIED 1-4 VDW PARAMETERS WILL BE USED
Info: DCD FILENAME           mobley_9246351_prod.dcd
Info: DCD FREQUENCY          100000
Info: DCD FIRST STEP         100000
Info: DCD FILE WILL CONTAIN UNIT CELL DATA
Info: XST FILENAME           mobley_9246351_prod.xst
Info: XST FREQUENCY          100000
Info: NO VELOCITY DCD OUTPUT
Info: NO FORCE DCD OUTPUT
Info: OUTPUT FILENAME        mobley_9246351_prod
Info: BINARY OUTPUT FILES WILL BE USED
Info: RESTART FILENAME       mobley_9246351_prod.restart
Info: RESTART FREQUENCY      100000
Info: BINARY RESTART FILES WILL BE USED
Info: CUTOFF                 9
Info: PAIRLIST DISTANCE      11
Info: PAIRLIST SHRINK RATE   0.01
Info: PAIRLIST GROW RATE     0.01
Info: PAIRLIST TRIGGER       0.3
Info: PAIRLISTS PER CYCLE    2
Info: PAIRLISTS ENABLED
Info: MARGIN                 2
Info: HYDROGEN GROUP CUTOFF  2.5
Info: PATCH DIMENSION        15.5
Info: ENERGY OUTPUT STEPS    100000
Info: ENERGY EVALUATION STEPS    100000
Info: OUTPUT ENERGY PRECISION 4
Info: CROSSTERM ENERGY INCLUDED IN DIHEDRAL
Info: TIMING OUTPUT STEPS    1000000
Info: PRESSURE OUTPUT STEPS  100000
Info: ALCHEMICAL FEP ON
Info: FEP CURRENT LAMBDA VALUE     0
Info: FEP COMPARISON LAMBDA VALUE  0.05
Info: FEP INTRA-ALCHEMICAL NON-BONDED INTERACTIONS WILL BE RETAINED
Info: FEP INTRA-ALCHEMICAL BONDED INTERACTIONS WILL BE RETAINED
Info: FEP VDW SHIFTING COEFFICIENT 5
Info: FEP ELEC. ACTIVE FOR ANNIHILATED PARTICLES BETWEEN LAMBDA = 0 AND LAMBDA = 0.5
Info: FEP ELEC. ACTIVE FOR EXNIHILATED PARTICLES BETWEEN LAMBDA = 0.5 AND LAMBDA = 1
Info: FEP VDW ACTIVE FOR ANNIHILATED PARTICLES BETWEEN LAMBDA = 0 AND LAMBDA = 1
Info: FEP VDW ACTIVE FOR EXNIHILATED PARTICLES BETWEEN LAMBDA = 0 AND LAMBDA = 1
Info: FEP BOND ACTIVE FOR ANNIHILATED PARTICLES BETWEEN LAMBDA = 1 AND LAMBDA = 1
Info: FEP BOND ACTIVE FOR EXNIHILATED PARTICLES BETWEEN LAMBDA = 0 AND LAMBDA = 0
Info: LANGEVIN DYNAMICS ACTIVE
Info: LANGEVIN TEMPERATURE   300
Info: LANGEVIN USING BBK INTEGRATOR
Info: LANGEVIN DAMPING COEFFICIENT IS 1 INVERSE PS
Info: LANGEVIN DYNAMICS APPLIED TO HYDROGENS
Info: LANGEVIN PISTON PRESSURE CONTROL ACTIVE
Info:        TARGET PRESSURE IS 1.01325 BAR
Info:     OSCILLATION PERIOD IS 50 FS
Info:             DECAY TIME IS 25 FS
Info:     PISTON TEMPERATURE IS 300 K
Info:       PRESSURE CONTROL IS GROUP-BASED
Info:    INITIAL STRAIN RATE IS -0.000868642 -0.000868642 -0.000868642
Info:       CELL FLUCTUATION IS ISOTROPIC
Info: PARTICLE MESH EWALD (PME) ACTIVE
Info: PME TOLERANCE               1e-06
Info: PME EWALD COEFFICIENT       0.348832
Info: PME INTERPOLATION ORDER     4
Info: PME GRID DIMENSIONS         32 32 36
Info: PME MAXIMUM GRID SPACING    1
Info: PME CALCULATION WILL BE PERFORMED ON GPU
Info: FULL ELECTROSTATIC EVALUATION FREQUENCY      2
Info: USING VERLET I (r-RESPA) MTS SCHEME.
Info: C1 SPLITTING OF LONG RANGE ELECTROSTATICS
Info: PLACING ATOMS IN PATCHES BY HYDROGEN GROUPS
Info: RIGID BONDS TO HYDROGEN : ALL
Info:         ERROR TOLERANCE : 1e-08
Info:          MAX ITERATIONS : 100
Info: RIGID WATER USING SETTLE ALGORITHM
Info: RANDOM NUMBER SEED     1742001790
Info: USE HYDROGEN BONDS?    NO
Info: Using AMBER format force field!
Info: AMBER PARM FILE        mobley_9246351.prmtop
Info: COORDINATE PDB         mobley_9246351.pdb
Info: Exclusions will be read from PARM file!
Info: SCNB (VDW SCALING)     2
Info: USING ARITHMETIC MEAN TO COMBINE L-J SIGMA PARAMETERS
Info: BINARY COORDINATES     mobley_9246351_equil.coor
Info: SUMMARY OF PARAMETERS:
Info: 4 BONDS
Info: 3 ANGLES
Info:   3 HARMONIC
Info:   0 COSINE-BASED
Info: 0 DIHEDRAL
Info: 0 IMPROPER
Info: 0 CROSSTERM
Info: 0 VDW
Info: 15 VDW_PAIRS
Info: 0 NBTHOLE_PAIRS
Info: To read alchdata from file: mobley_9246351.pdb
Info: To read alchflag data from column: 5
Info: STRUCTURE SUMMARY:
Info: 2906 ATOMS
Info: 2905 BONDS
Info: 6 ANGLES
Info: 0 DIHEDRALS
Info: 0 IMPROPERS
Info: 0 CROSSTERMS
Info: 2911 EXCLUSIONS
Info: 2903 RIGID BONDS
Info: ALCH: 0 ATOMS TO DISAPPEAR IN FINAL STATE
Info: ALCH: 5 ATOMS TO APPEAR IN FINAL STATE
Info: 5815 DEGREES OF FREEDOM
Info: 970 HYDROGEN GROUPS
Info: 3 ATOMS IN LARGEST HYDROGEN GROUP
Info: 970 MIGRATION GROUPS
Info: 3 ATOMS IN LARGEST MIGRATION GROUP
Info: TOTAL MASS = 17595.3 amu
Info: TOTAL CHARGE = -0.000100001 e
Info: MASS DENSITY = 0.967269 g/cm^3
Info: ATOM DENSITY = 0.0962026 atoms/A^3
Info: ADDED 0 IMPLICIT EXCLUSIONS
Info: NONBONDED TABLE R-SQUARED SPACING: 0.0625
Info: NONBONDED TABLE SIZE: 705 POINTS
Info: REMOVING COM VELOCITY -0.039076 0.0188189 -0.156563
Info: Use 3D box decompostion in PME FFT.
Info: Updated CUDA force table with 4096 elements.
Info: Updated CUDA LJ table with 5 x 5 elements.
Info: Found 8 unique exclusion lists needing 8 bytes
TCL: Running for 1500000 steps
ETITLE: TS BOND ANGLE DIHED IMPRP ELECT VDW BOUNDARY MISC KINETIC TOTAL TEMP POTENTIAL TOTALAVG TEMPAVG PRESSURE GPRESSURE VOLUME PRESSAVG GPRESSAVG
ENERGY: 0 0.2846 1.8348 0.0000 0.0000 -10502.0477 1394.4659 0.0000 0.0000 1716.0695 -7389.3929 297.0131 -9105.4624 -7389.3929 297.0131 -233.9569 -137.4909 30207.0844 -233.9569 -137.4909
ENERGY: 300000 2.4280 2.2849 0.0000 0.0000 -10614.0557 1437.2673 0.0000 0.0000 1716.4817 -7455.5938 297.0844 -9172.0755 -7443.6786 296.8872 -10.1288 105.9068 29854.5414 17.8914 92.0630
ENERGY: 600000 0.7915 0.8750 0.0000 0.0000 -10573.9674 1435.9147 0.0000 0.0000 1695.6557 -7440.7305 293.4799 -9136.3862 -7437.5544 296.9244 12.9522 40.5807 30023.7770 -80.8427 -23.0005
ENERGY: 900000 0.2909 3.9005 0.0000 0.0000 -10507.4932 1410.7448 0.0000 0.0000 1712.2918 -7380.2653 296.3592 -9092.5571 -7416.4852 297.8500 -80.8174 2.8462 29878.5197 -45.2621 6.4006
ENERGY: 1200000 0.2450 1.9300 0.0000 0.0000 -10520.5502 1383.0479 0.0000 0.0000 1713.0142 -7422.3130 296.4843 -9135.3273 -7413.4782 298.6472 -271.2027 -225.0065 29615.5204 -138.7080 -82.8197
ENERGY: 1500000 0.1803 2.7387 0.0000 0.0000 -10558.4033 1382.0509 0.0000 0.0000 1713.1755 -7460.2579 296.5122 -9173.4334 -7416.4304 298.1214 -482.5366 -428.9611 29810.4973 -204.5894 -147.0974
TCL: Running FEP window   2: Lambda1 0.05   Lambda2 0.1    [dLambda 0.05  ]
TCL: Setting parameter firsttimestep to 0
TCL: Setting parameter alchLambda to 0.05
Info: NONBONDED TABLE R-SQUARED SPACING: 0.0625
Info: NONBONDED TABLE SIZE: 705 POINTS
TCL: Setting parameter alchLambda2 to 0.1
Info: NONBONDED TABLE R-SQUARED SPACING: 0.0625
Info: NONBONDED TABLE SIZE: 705 POINTS
TCL: Running for 1500000 steps
ETITLE: TS BOND ANGLE DIHED IMPRP ELECT VDW BOUNDARY MISC KINETIC TOTAL TEMP POTENTIAL TOTALAVG TEMPAVG PRESSURE GPRESSURE VOLUME PRESSAVG GPRESSAVG
ENERGY: 0 0.1803 2.7387 0.0000 0.0000 -10558.4045 1386.8551 0.0000 0.0000 1712.3008 -7456.3296 296.3608 -9168.6304 -7456.3296 296.3608 -509.7742 -421.5420 29810.4973 -509.7742 -421.5420
ENERGY: 300000 1.7452 0.4464 0.0000 0.0000 -10492.5749 1339.5552 0.0000 0.0000 1680.7562 -7470.0719 290.9011 -9150.8281 -7428.3630 297.2190 -629.4008 -551.5627 29624.9368 -389.7279 -314.9262
ENERGY: 600000 0.4441 0.7027 0.0000 0.0000 -10445.6093 1352.1876 0.0000 0.0000 1777.6972 -7314.5777 307.6794 -9092.2749 -7405.5829 299.2323 -626.8125 -514.0662 30350.1172 -222.5604 -154.5613
ENERGY: 900000 0.3221 0.3799 0.0000 0.0000 -10623.3453 1475.1512 0.0000 0.0000 1738.2435 -7409.2485 300.8509 -9147.4921 -7410.7578 299.4883 532.9746 550.2460 29565.5350 -163.5215 -103.1729
ENERGY: 1200000 0.3636 3.6237 0.0000 0.0000 -10447.0703 1447.7272 0.0000 0.0000 1717.5220 -7277.8337 297.2645 -8995.3557 -7389.1751 299.4896 625.6443 634.4253 29893.5814 -190.4985 -132.5321
ENERGY: 1500000 1.4774 2.1021 0.0000 0.0000 -10633.8787 1468.7636 0.0000 0.0000 1763.2878 -7398.2479 305.1855 -9161.5357 -7386.1776 300.2486 538.8294 592.7219 29522.6735 -89.5251 -27.5749
TCL: Running FEP window   3: Lambda1 0.1    Lambda2 0.15000000000000002 [dLambda 0.05000000000000002]
TCL: Setting parameter firsttimestep to 0
TCL: Setting parameter alchLambda to 0.1
Info: NONBONDED TABLE R-SQUARED SPACING: 0.0625
Info: NONBONDED TABLE SIZE: 705 POINTS
TCL: Setting parameter alchLambda2 to 0.15000000000000002
Info: NONBONDED TABLE R-SQUARED SPACING: 0.0625
Info: NONBONDED TABLE SIZE: 705 POINTS
TCL: Running for 1500000 steps
ETITLE: TS BOND ANGLE DIHED IMPRP ELECT VDW BOUNDARY MISC KINETIC TOTAL TEMP POTENTIAL TOTALAVG TEMPAVG PRESSURE GPRESSURE VOLUME PRESSAVG GPRESSAVG
ENERGY: 0 1.4774 2.1021 0.0000 0.0000 -10633.8782 1469.1322 0.0000 0.0000 1762.4404 -7398.7261 305.0388 -9161.1665 -7398.7261 305.0388 512.3207 598.9898 29522.6735 512.3207 598.9898
ENERGY: 300000 0.6460 2.1651 0.0000 0.0000 -10583.8638 1452.9119 0.0000 0.0000 1721.2215 -7406.9193 297.9048 -9128.1409 -7392.9013 302.4249 331.5090 415.9140 29594.0074 44.0534 118.7504
ENERGY: 600000 0.4024 1.9467 0.0000 0.0000 -10663.8830 1463.5845 0.0000 0.0000 1711.2482 -7486.7011 296.1786 -9197.9493 -7409.0992 302.9221 149.4854 230.6842 29820.4467 -79.1802 -2.7109
ENERGY: 900000 0.2088 2.1474 0.0000 0.0000 -10685.0437 1485.6841 0.0000 0.0000 1766.0245 -7430.9788 305.6591 -9197.0034 -7411.6945 303.0061 556.7479 684.9715 29462.3478 -30.8956 48.8991
ENERGY: 1200000 0.5001 3.4593 0.0000 0.0000 -10633.1798 1436.9726 0.0000 0.0000 1794.3248 -7397.9230 310.5573 -9192.2478 -7417.9461 302.9641 -58.3686 3.7750 29836.5918 -8.4642 69.9853
ENERGY: 1500000 0.6114 1.2072 0.0000 0.0000 -10540.1133 1344.9001 0.0000 0.0000 1724.7889 -7468.6057 298.5222 -9193.3946 -7420.9736 301.9819 -720.7910 -655.1766 29868.4055 -131.3065 -58.2223
TCL: Running FEP window   4: Lambda1 0.15000000000000002 Lambda2 0.2    [dLambda 0.04999999999999999]
TCL: Setting parameter firsttimestep to 0
TCL: Setting parameter alchLambda to 0.15000000000000002
Info: NONBONDED TABLE R-SQUARED SPACING: 0.0625
Info: NONBONDED TABLE SIZE: 705 POINTS
TCL: Setting parameter alchLambda2 to 0.2
Info: NONBONDED TABLE R-SQUARED SPACING: 0.0625
Info: NONBONDED TABLE SIZE: 705 POINTS
TCL: Running for 1500000 steps
ETITLE: TS BOND ANGLE DIHED IMPRP ELECT VDW BOUNDARY MISC KINETIC TOTAL TEMP POTENTIAL TOTALAVG TEMPAVG PRESSURE GPRESSURE VOLUME PRESSAVG GPRESSAVG
ENERGY: 0 0.6114 1.2072 0.0000 0.0000 -10540.1126 1345.3167 0.0000 0.0000 1723.9397 -7469.0376 298.3752 -9192.9772 -7469.0376 298.3752 -744.3926 -651.6358 29868.4055 -744.3926 -651.6358
ENERGY: 300000 0.7660 2.2404 0.0000 0.0000 -10622.3528 1452.4674 0.0000 0.0000 1694.7414 -7472.1376 293.3216 -9166.8790 -7448.6896 298.3847 178.6873 249.1451 29970.8960 -95.5620 -14.7087
ENERGY: 600000 0.3621 2.4885 0.0000 0.0000 -10468.7770 1400.1030 0.0000 0.0000 1723.5157 -7342.3078 298.3018 -9065.8235 -7401.1656 300.8158 -203.0259 -130.2522 30255.2037 -146.6574 -51.9010
ENERGY: 900000 0.9798 4.3738 0.0000 0.0000 -10492.4476 1411.0115 0.0000 0.0000 1705.8206 -7370.2620 295.2392 -9076.0826 -7400.7974 299.9573 -162.4681 -106.3157 30087.8329 -209.2547 -118.8857
ENERGY: 1200000 0.6979 1.0384 0.0000 0.0000 -10496.4616 1343.9957 0.0000 0.0000 1780.1742 -7370.5553 308.1081 -9150.7295 -7403.3883 300.7028 -724.7936 -636.0632 29984.3155 -263.2904 -174.5620
ENERGY: 1500000 0.5006 1.7915 0.0000 0.0000 -10567.6898 1376.7798 0.0000 0.0000 1718.7663 -7469.8516 297.4798 -9188.6179 -7409.4994 299.8357 -565.6369 -493.3231 29993.2789 -271.3595 -181.1590
TCL: Running FEP window   5: Lambda1 0.2    Lambda2 0.25   [dLambda 0.04999999999999999]
TCL: Setting parameter firsttimestep to 0
TCL: Setting parameter alchLambda to 0.2
Info: NONBONDED TABLE R-SQUARED SPACING: 0.0625
Info: NONBONDED TABLE SIZE: 705 POINTS
TCL: Setting parameter alchLambda2 to 0.25
Info: NONBONDED TABLE R-SQUARED SPACING: 0.0625
Info: NONBONDED TABLE SIZE: 705 POINTS
TCL: Running for 1500000 steps
ETITLE: TS BOND ANGLE DIHED IMPRP ELECT VDW BOUNDARY MISC KINETIC TOTAL TEMP POTENTIAL TOTALAVG TEMPAVG PRESSURE GPRESSURE VOLUME PRESSAVG GPRESSAVG
ENERGY: 0 0.5006 1.7915 0.0000 0.0000 -10567.6905 1376.8870 0.0000 0.0000 1717.9093 -7470.6021 297.3315 -9188.5114 -7470.6021 297.3315 -575.1574 -487.8787 29993.2789 -575.1574 -487.8787
ENERGY: 300000 0.5766 0.3661 0.0000 0.0000 -10580.1891 1438.4513 0.0000 0.0000 1744.9769 -7395.8182 302.0163 -9140.7951 -7432.1781 299.0880 68.7004 174.9961 30030.3139 7.5097 65.2568
ENERGY: 600000 0.1663 2.0185 0.0000 0.0000 -10691.4572 1512.6800 0.0000 0.0000 1745.6758 -7430.9166 302.1372 -9176.5924 -7424.4626 300.5401 589.2387 662.1002 29933.8653 113.2287 154.7959
ENERGY: 900000 2.1637 2.3897 0.0000 0.0000 -10477.2406 1355.2235 0.0000 0.0000 1728.5439 -7388.9197 299.1721 -9117.4636 -7417.8511 300.2193 -546.2534 -463.7452 29879.8654 5.0416 46.8508
ENERGY: 1200000 0.3827 0.9516 0.0000 0.0000 -10638.1001 1454.1775 0.0000 0.0000 1705.6520 -7476.9363 295.2100 -9182.5883 -7417.4775 300.1703 404.0586 475.6509 29198.9209 -36.6732 16.9277
ENERGY: 1500000 0.3988 0.7802 0.0000 0.0000 -10638.4657 1419.0222 0.0000 0.0000 1760.3103 -7457.9542 304.6701 -9218.2646 -7429.3476 299.2989 -98.7042 -17.1527 29502.6515 -54.4725 -2.9996
TCL: Running FEP window   6: Lambda1 0.25   Lambda2 0.3    [dLambda 0.04999999999999999]
TCL: Setting parameter firsttimestep to 0
TCL: Setting parameter alchLambda to 0.25
Info: NONBONDED TABLE R-SQUARED SPACING: 0.0625
Info: NONBONDED TABLE SIZE: 705 POINTS
TCL: Setting parameter alchLambda2 to 0.3
Info: NONBONDED TABLE R-SQUARED SPACING: 0.0625
Info: NONBONDED TABLE SIZE: 705 POINTS
TCL: Running for 1500000 steps
ETITLE: TS BOND ANGLE DIHED IMPRP ELECT VDW BOUNDARY MISC KINETIC TOTAL TEMP POTENTIAL TOTALAVG TEMPAVG PRESSURE GPRESSURE VOLUME PRESSAVG GPRESSAVG
ENERGY: 0 0.3988 0.7802 0.0000 0.0000 -10638.4651 1419.0819 0.0000 0.0000 1759.4310 -7458.7733 304.5180 -9218.2043 -7458.7733 304.5180 -107.2830 -12.4378 29502.6515 -107.2830 -12.4378
ENERGY: 300000 1.7430 1.3945 0.0000 0.0000 -10424.3204 1375.1916 0.0000 0.0000 1646.6901 -7399.3013 285.0050 -9045.9914 -7389.5605 298.1722 -161.4998 -90.9179 29845.8311 -530.1399 -471.7758
ENERGY: 600000 0.7890 1.5396 0.0000 0.0000 -10714.0059 1487.6305 0.0000 0.0000 1791.8891 -7432.1577 310.1357 -9224.0467 -7405.3297 302.6137 242.0238 230.2453 29923.8093 -305.8539 -253.3024
ENERGY: 900000 0.2416 2.8838 0.0000 0.0000 -10467.8668 1343.2290 0.0000 0.0000 1747.0479 -7374.4645 302.3747 -9121.5124 -7401.8550 302.6427 -582.3057 -486.1305 29974.4196 -257.3030 -200.0692
ENERGY: 1200000 0.0146 1.6404 0.0000 0.0000 -10651.8602 1508.8656 0.0000 0.0000 1690.4234 -7450.9162 292.5743 -9141.3395 -7411.6056 301.5032 749.1217 835.7059 29732.3607 -232.6166 -165.8694
ENERGY: 1500000 0.0070 0.8953 0.0000 0.0000 -10623.5031 1379.3045 0.0000 0.0000 1737.9039 -7505.3924 300.7921 -9243.2963 -7412.1932 301.1343 -506.6333 -489.3271 29678.0164 -283.2324 -218.8371
TCL: Running FEP window   7: Lambda1 0.3    Lambda2 0.35   [dLambda 0.04999999999999999]
TCL: Setting parameter firsttimestep to 0
TCL: Setting parameter alchLambda to 0.3
Info: NONBONDED TABLE R-SQUARED SPACING: 0.0625
Info: NONBONDED TABLE SIZE: 705 POINTS
TCL: Setting parameter alchLambda2 to 0.35
Info: NONBONDED TABLE R-SQUARED SPACING: 0.0625
Info: NONBONDED TABLE SIZE: 705 POINTS
TCL: Running for 1500000 steps
ETITLE: TS BOND ANGLE DIHED IMPRP ELECT VDW BOUNDARY MISC KINETIC TOTAL TEMP POTENTIAL TOTALAVG TEMPAVG PRESSURE GPRESSURE VOLUME PRESSAVG GPRESSAVG
ENERGY: 0 0.0070 0.8953 0.0000 0.0000 -10623.5028 1379.2352 0.0000 0.0000 1737.0279 -7506.3375 300.6405 -9243.3653 -7506.3375 300.6405 -583.1589 -489.5315 29678.0164 -583.1589 -489.5315
ENERGY: 300000 2.2682 0.4900 0.0000 0.0000 -10512.6165 1421.5976 0.0000 0.0000 1718.2295 -7370.0312 297.3869 -9088.2607 -7415.1398 299.5991 111.7588 190.3793 29970.7311 -264.4543 -172.4037
ENERGY: 600000 0.4571 0.5115 0.0000 0.0000 -10531.8339 1369.8522 0.0000 0.0000 1759.7053 -7401.3077 304.5654 -9161.0130 -7423.9460 299.3875 -552.7830 -427.9328 30016.6822 -234.2694 -159.4571
ENERGY: 900000 2.2806 1.1288 0.0000 0.0000 -10523.0271 1365.3234 0.0000 0.0000 1795.4296 -7358.8647 310.7485 -9154.2943 -7396.4375 300.6994 -341.1223 -267.9031 29694.3012 -220.8294 -147.9426
ENERGY: 1200000 0.8649 1.5586 0.0000 0.0000 -10657.3770 1456.4523 0.0000 0.0000 1736.9901 -7461.5111 300.6339 -9198.5011 -7410.2439 299.3458 341.8823 483.1013 29477.4753 -173.3690 -93.6795
ENERGY: 1500000 0.1707 2.3261 0.0000 0.0000 -10546.2194 1383.7948 0.0000 0.0000 1726.2079 -7433.7199 298.7678 -9159.9278 -7403.5438 299.8280 -432.2990 -351.0844 29912.5643 -211.9132 -136.6846
TCL: Running FEP window   8: Lambda1 0.35   Lambda2 0.39999999999999997 [dLambda 0.04999999999999999]
TCL: Setting parameter firsttimestep to 0
TCL: Setting parameter alchLambda to 0.35
Info: NONBONDED TABLE R-SQUARED SPACING: 0.0625
Info: NONBONDED TABLE SIZE: 705 POINTS
TCL: Setting parameter alchLambda2 to 0.39999999999999997
Info: NONBONDED TABLE R-SQUARED SPACING: 0.0625
Info: NONBONDED TABLE SIZE: 705 POINTS
TCL: Running for 1500000 steps
ETITLE: TS BOND ANGLE DIHED IMPRP ELECT VDW BOUNDARY MISC KINETIC TOTAL TEMP POTENTIAL TOTALAVG TEMPAVG PRESSURE GPRESSURE VOLUME PRESSAVG GPRESSAVG
ENERGY: 0 0.1707 2.3261 0.0000 0.0000 -10546.2192 1384.3447 0.0000 0.0000 1725.3221 -7434.0555 298.6145 -9159.3776 -7434.0555 298.6145 -424.5569 -345.9534 29912.5643 -424.5569 -345.9534
ENERGY: 300000 0.0841 3.2135 0.0000 0.0000 -10432.3271 1361.1384 0.0000 0.0000 1783.1341 -7284.7570 308.6204 -9067.8911 -7352.2335 301.6490 -469.1190 -416.5096 30386.0465 -453.8983 -393.6754
ENERGY: 600000 1.3782 1.0588 0.0000 0.0000 -10604.1973 1447.7512 0.0000 0.0000 1707.4699 -7446.5391 295.5247 -9154.0090 -7382.4658 299.3555 -201.3604 -92.6187 30372.4814 -211.2370 -139.6912
ENERGY: 900000 0.2127 1.4987 0.0000 0.0000 -10650.7040 1472.0121 0.0000 0.0000 1726.4681 -7450.5123 298.8128 -9176.9804 -7398.0576 299.5671 15.5694 55.9772 30303.3323 -169.3080 -107.2656
ENERGY: 1200000 0.5927 1.1814 0.0000 0.0000 -10496.1805 1419.6272 0.0000 0.0000 1749.7529 -7325.0263 302.8429 -9074.7792 -7398.9506 299.6178 212.4902 280.9646 29963.1766 -56.5669 2.5686
ENERGY: 1500000 1.6973 1.2254 0.0000 0.0000 -10477.4374 1309.1398 0.0000 0.0000 1732.4857 -7432.8892 299.8543 -9165.3749 -7406.9887 300.1430 -1177.4923 -1182.5697 30307.2722 -107.8441 -58.7184
TCL: Running FEP window   9: Lambda1 0.39999999999999997 Lambda2 0.44999999999999996 [dLambda 0.04999999999999999]
TCL: Setting parameter firsttimestep to 0
TCL: Setting parameter alchLambda to 0.39999999999999997
Info: NONBONDED TABLE R-SQUARED SPACING: 0.0625
Info: NONBONDED TABLE SIZE: 705 POINTS
TCL: Setting parameter alchLambda2 to 0.44999999999999996
Info: NONBONDED TABLE R-SQUARED SPACING: 0.0625
Info: NONBONDED TABLE SIZE: 705 POINTS
TCL: Running for 1500000 steps
ETITLE: TS BOND ANGLE DIHED IMPRP ELECT VDW BOUNDARY MISC KINETIC TOTAL TEMP POTENTIAL TOTALAVG TEMPAVG PRESSURE GPRESSURE VOLUME PRESSAVG GPRESSAVG
ENERGY: 0 1.6973 1.2254 0.0000 0.0000 -10477.4374 1309.0684 0.0000 0.0000 1731.6017 -7433.8446 299.7013 -9165.4463 -7433.8446 299.7013 -1256.1252 -1176.7999 30307.2722 -1256.1252 -1176.7999
ENERGY: 300000 0.3132 1.7816 0.0000 0.0000 -10674.1016 1504.4605 0.0000 0.0000 1689.8630 -7477.6832 292.4773 -9167.5463 -7430.4164 298.9818 401.7446 477.1007 29960.4580 -375.6188 -315.5132
ENERGY: 600000 0.8480 1.3920 0.0000 0.0000 -10524.0925 1453.7641 0.0000 0.0000 1711.5433 -7356.5451 296.2297 -9068.0884 -7395.6706 298.3678 544.5729 630.2005 29827.9950 -61.6798 2.4085
ENERGY: 900000 0.0833 1.3311 0.0000 0.0000 -10413.5533 1344.8791 0.0000 0.0000 1725.9206 -7341.3391 298.7181 -9067.2598 -7383.7442 299.4884 -560.5201 -467.5788 30222.3051 -187.2283 -119.2963
ENERGY: 1200000 0.5359 0.7832 0.0000 0.0000 -10549.5505 1433.2506 0.0000 0.0000 1679.1252 -7435.8556 290.6188 -9114.9808 -7380.9120 299.3331 10.5904 83.8631 30223.8997 -271.0933 -211.3940
ENERGY: 1500000 0.8990 0.9157 0.0000 0.0000 -10484.7647 1382.2054 0.0000 0.0000 1708.5179 -7392.2267 295.7060 -9100.7446 -7389.5297 299.2599 -398.3043 -369.0885 30393.4329 -317.5901 -264.8567
TCL: Running FEP window  10: Lambda1 0.44999999999999996 Lambda2 0.49999999999999994 [dLambda 0.04999999999999999]
TCL: Setting parameter firsttimestep to 0
TCL: Setting parameter alchLambda to 0.44999999999999996
Info: NONBONDED TABLE R-SQUARED SPACING: 0.0625
Info: NONBONDED TABLE SIZE: 705 POINTS
TCL: Setting parameter alchLambda2 to 0.49999999999999994
Info: NONBONDED TABLE R-SQUARED SPACING: 0.0625
Info: NONBONDED TABLE SIZE: 705 POINTS
TCL: Running for 1500000 steps
ETITLE: TS BOND ANGLE DIHED IMPRP ELECT VDW BOUNDARY MISC KINETIC TOTAL TEMP POTENTIAL TOTALAVG TEMPAVG PRESSURE GPRESSURE VOLUME PRESSAVG GPRESSAVG
ENERGY: 0 0.8990 0.9157 0.0000 0.0000 -10484.7636 1382.1872 0.0000 0.0000 1707.6783 -7393.0835 295.5607 -9100.7618 -7393.0835 295.5607 -441.4384 -364.4883 30393.4329 -441.4384 -364.4883
ENERGY: 300000 0.2066 1.5882 0.0000 0.0000 -10572.0459 1415.0673 0.0000 0.0000 1708.5581 -7446.6257 295.7130 -9155.1838 -7422.0290 296.3196 84.7429 126.9509 29577.7468 -88.4226 -33.0054
ENERGY: 600000 0.6179 2.7739 0.0000 0.0000 -10563.4890 1378.2059 0.0000 0.0000 1726.0186 -7455.8726 298.7350 -9181.8913 -7403.1168 299.1576 -325.3810 -290.0543 29651.5063 111.1299 162.1381
ENERGY: 900000 0.4392 0.3825 0.0000 0.0000 -10557.3993 1376.1069 0.0000 0.0000 1753.5756 -7426.8951 303.5045 -9180.4707 -7410.7810 299.7363 -351.8895 -250.5811 29755.7917 82.1859 136.2752
ENERGY: 1200000 0.3233 1.5338 0.0000 0.0000 -10367.8804 1300.3664 0.0000 0.0000 1820.8775 -7244.7793 315.1530 -9065.6568 -7394.9925 301.8230 -740.8253 -654.0594 30269.5209 -80.6761 -20.9035
ENERGY: 1500000 0.5087 2.4566 0.0000 0.0000 -10428.7714 1399.0642 0.0000 0.0000 1734.2564 -7292.4856 300.1608 -9026.7420 -7389.2376 301.3285 90.7062 173.2447 30075.0325 -68.9040 -6.2808
TCL: Running FEP window  11: Lambda1 0.49999999999999994 Lambda2 0.5499999999999999 [dLambda 0.04999999999999999]
TCL: Setting parameter firsttimestep to 0
TCL: Setting parameter alchLambda to 0.49999999999999994
Info: NONBONDED TABLE R-SQUARED SPACING: 0.0625
Info: NONBONDED TABLE SIZE: 705 POINTS
TCL: Setting parameter alchLambda2 to 0.5499999999999999
Info: NONBONDED TABLE R-SQUARED SPACING: 0.0625
Info: NONBONDED TABLE SIZE: 705 POINTS
TCL: Running for 1500000 steps
ETITLE: TS BOND ANGLE DIHED IMPRP ELECT VDW BOUNDARY MISC KINETIC TOTAL TEMP POTENTIAL TOTALAVG TEMPAVG PRESSURE GPRESSURE VOLUME PRESSAVG GPRESSAVG
ENERGY: 0 0.5087 2.4566 0.0000 0.0000 -10428.7716 1399.4461 0.0000 0.0000 1733.3228 -7293.0374 299.9992 -9026.3603 -7293.0374 299.9992 86.6966 180.1207 30075.0325 86.6966 180.1207
ENERGY: 300000 0.1585 0.7825 0.0000 0.0000 -10736.8570 1542.4788 0.0000 0.0000 1725.7292 -7467.7080 298.6849 -9193.4372 -7360.1492 302.7419 967.3783 997.8421 29502.7321 506.4200 558.2245
ENERGY: 600000 0.0079 1.2888 0.0000 0.0000 -10678.0619 1475.8300 0.0000 0.0000 1744.0303 -7456.9050 301.8524 -9200.9353 -7375.4200 302.1841 484.7097 453.6388 29494.4596 293.8671 334.1131
ENERGY: 900000 0.2739 1.5247 0.0000 0.0000 -10575.4874 1411.0519 0.0000 0.0000 1717.1509 -7445.4861 297.2002 -9162.6370 -7389.1799 301.0573 -95.1005 -53.7166 29828.8684 216.5856 255.5713
ENERGY: 1200000 0.0974 0.5902 0.0000 0.0000 -10438.1878 1340.7077 0.0000 0.0000 1779.0808 -7317.7117 307.9189 -9096.7925 -7383.9420 301.1960 -865.7667 -773.6253 30721.0061 148.8747 188.9219
ENERGY: 1500000 0.0990 1.7420 0.0000 0.0000 -10604.8650 1503.4363 0.0000 0.0000 1722.1650 -7377.4227 298.0681 -9099.5878 -7395.8773 300.2531 825.8213 842.0053 29688.3318 166.5372 203.0824
TCL: Running FEP window  12: Lambda1 0.5499999999999999 Lambda2 0.6    [dLambda 0.050000000000000044]
TCL: Setting parameter firsttimestep to 0
TCL: Setting parameter alchLambda to 0.5499999999999999
Info: NONBONDED TABLE R-SQUARED SPACING: 0.0625
Info: NONBONDED TABLE SIZE: 705 POINTS
TCL: Setting parameter alchLambda2 to 0.6
Info: NONBONDED TABLE R-SQUARED SPACING: 0.0625
Info: NONBONDED TABLE SIZE: 705 POINTS
TCL: Running for 1500000 steps
ETITLE: TS BOND ANGLE DIHED IMPRP ELECT VDW BOUNDARY MISC KINETIC TOTAL TEMP POTENTIAL TOTALAVG TEMPAVG PRESSURE GPRESSURE VOLUME PRESSAVG GPRESSAVG
ENERGY: 0 0.0990 1.7420 0.0000 0.0000 -10604.6910 1503.1191 0.0000 0.0000 1721.3145 -7378.4163 297.9209 -9099.7309 -7378.4163 297.9209 774.9552 847.2521 29688.3318 774.9552 847.2521
ENERGY: 300000 0.2330 1.1415 0.0000 0.0000 -10491.5236 1378.0526 0.0000 0.0000 1744.8120 -7367.2844 301.9877 -9112.0965 -7380.8151 301.2445 -544.0106 -527.7900 30722.0747 -344.0894 -273.1912
ENERGY: 600000 0.4343 0.8712 0.0000 0.0000 -10420.2174 1286.3013 0.0000 0.0000 1728.2798 -7404.3307 299.1264 -9132.6106 -7395.6393 300.4427 -1269.1894 -1159.1202 30340.8997 -392.6151 -304.8171
ENERGY: 900000 0.2022 0.5624 0.0000 0.0000 -10600.7384 1417.5226 0.0000 0.0000 1691.0965 -7491.3546 292.6908 -9182.4511 -7403.4688 300.9007 -194.8169 -187.3303 30123.3953 -266.6287 -197.9570
ENERGY: 1200000 0.5304 3.0526 0.0000 0.0000 -10583.5036 1434.3514 0.0000 0.0000 1726.8016 -7418.7676 298.8705 -9145.5692 -7393.8931 300.7704 72.6380 40.4790 30183.1594 -229.1375 -175.4431
ENERGY: 1500000 0.1751 2.3369 0.0000 0.0000 -10627.4024 1489.5367 0.0000 0.0000 1752.2182 -7383.1356 303.2696 -9135.3538 -7398.7315 300.3453 974.6097 1044.3987 29172.9053 -161.6980 -106.8476
TCL: Running FEP window  13: Lambda1 0.6    Lambda2 0.65   [dLambda 0.050000000000000044]
TCL: Setting parameter firsttimestep to 0
TCL: Setting parameter alchLambda to 0.6
Info: NONBONDED TABLE R-SQUARED SPACING: 0.0625
Info: NONBONDED TABLE SIZE: 705 POINTS
TCL: Setting parameter alchLambda2 to 0.65
Info: NONBONDED TABLE R-SQUARED SPACING: 0.0625
Info: NONBONDED TABLE SIZE: 705 POINTS
TCL: Running for 1500000 steps
ETITLE: TS BOND ANGLE DIHED IMPRP ELECT VDW BOUNDARY MISC KINETIC TOTAL TEMP POTENTIAL TOTALAVG TEMPAVG PRESSURE GPRESSURE VOLUME PRESSAVG GPRESSAVG
ENERGY: 0 0.1751 2.3369 0.0000 0.0000 -10627.5003 1489.3471 0.0000 0.0000 1751.3369 -7384.3044 303.1170 -9135.6412 -7384.3044 303.1170 964.4512 1051.5057 29172.9053 964.4512 1051.5057
ENERGY: 300000 0.0675 1.7659 0.0000 0.0000 -10669.1980 1467.3239 0.0000 0.0000 1732.3197 -7467.7210 299.8256 -9200.0406 -7425.3780 301.2779 -11.4902 55.8703 30179.7228 408.0396 466.1595
ENERGY: 600000 0.0520 2.1336 0.0000 0.0000 -10537.3977 1378.5862 0.0000 0.0000 1712.4861 -7444.1398 296.3928 -9156.6259 -7408.1348 300.0050 -280.6756 -235.4718 29717.5791 123.3479 180.6185
ENERGY: 900000 0.5133 1.5593 0.0000 0.0000 -10577.2847 1435.8700 0.0000 0.0000 1713.1691 -7426.1731 296.5111 -9139.3422 -7409.3288 299.0840 40.6319 63.5648 30072.7833 -9.3649 46.2445
ENERGY: 1200000 0.0304 4.0578 0.0000 0.0000 -10691.0102 1475.6287 0.0000 0.0000 1752.6153 -7458.6780 303.3383 -9211.2933 -7420.8455 299.3542 422.3993 514.0899 29423.8904 2.9856 68.2371
ENERGY: 1500000 0.7971 3.5062 0.0000 0.0000 -10584.8162 1459.6471 0.0000 0.0000 1770.1971 -7350.6687 306.3813 -9120.8658 -7408.5852 299.9738 474.9592 608.3895 29539.4620 2.9332 71.1678
TCL: Running FEP window  14: Lambda1 0.65   Lambda2 0.7000000000000001 [dLambda 0.050000000000000044]
TCL: Setting parameter firsttimestep to 0
TCL: Setting parameter alchLambda to 0.65
Info: NONBONDED TABLE R-SQUARED SPACING: 0.0625
Info: NONBONDED TABLE SIZE: 705 POINTS
TCL: Setting parameter alchLambda2 to 0.7000000000000001
Info: NONBONDED TABLE R-SQUARED SPACING: 0.0625
Info: NONBONDED TABLE SIZE: 705 POINTS
TCL: Running for 1500000 steps
ETITLE: TS BOND ANGLE DIHED IMPRP ELECT VDW BOUNDARY MISC KINETIC TOTAL TEMP POTENTIAL TOTALAVG TEMPAVG PRESSURE GPRESSURE VOLUME PRESSAVG GPRESSAVG
ENERGY: 0 0.7971 3.5062 0.0000 0.0000 -10584.6001 1459.4120 0.0000 0.0000 1769.3179 -7351.5669 306.2291 -9120.8848 -7351.5669 306.2291 533.6650 612.9995 29539.4620 533.6650 612.9995
ENERGY: 300000 0.5154 1.1060 0.0000 0.0000 -10655.9861 1435.3401 0.0000 0.0000 1745.3322 -7473.6924 302.0778 -9219.0246 -7406.7183 302.3984 -88.8009 -1.1346 29846.4891 -127.0160 -33.3984
ENERGY: 600000 0.0494 0.5667 0.0000 0.0000 -10355.1608 1305.2721 0.0000 0.0000 1692.3984 -7356.8742 292.9161 -9049.2727 -7411.3802 299.1566 -879.8740 -839.4354 30521.2540 -30.2287 56.3510
ENERGY: 900000 0.9423 1.7785 0.0000 0.0000 -10592.9959 1415.8602 0.0000 0.0000 1733.6575 -7440.7575 300.0571 -9174.4150 -7405.9213 299.7169 83.9024 129.3486 29590.2038 -52.6959 28.0823
ENERGY: 1200000 0.4352 2.1484 0.0000 0.0000 -10467.9255 1382.7014 0.0000 0.0000 1724.0814 -7358.5591 298.3997 -9082.6405 -7405.9013 299.0967 -59.5410 22.0735 29965.9954 -49.8757 31.0038
ENERGY: 1500000 1.2036 1.9563 0.0000 0.0000 -10525.0953 1370.7080 0.0000 0.0000 1665.9327 -7485.2947 288.3355 -9151.2275 -7417.9983 298.1031 -590.5003 -552.3948 30129.7186 -22.5938 55.8300
TCL: Running FEP window  15: Lambda1 0.7000000000000001 Lambda2 0.7500000000000001 [dLambda 0.050000000000000044]
TCL: Setting parameter firsttimestep to 0
TCL: Setting parameter alchLambda to 0.7000000000000001
Info: NONBONDED TABLE R-SQUARED SPACING: 0.0625
Info: NONBONDED TABLE SIZE: 705 POINTS
TCL: Setting parameter alchLambda2 to 0.7500000000000001
Info: NONBONDED TABLE R-SQUARED SPACING: 0.0625
Info: NONBONDED TABLE SIZE: 705 POINTS
TCL: Running for 1500000 steps
ETITLE: TS BOND ANGLE DIHED IMPRP ELECT VDW BOUNDARY MISC KINETIC TOTAL TEMP POTENTIAL TOTALAVG TEMPAVG PRESSURE GPRESSURE VOLUME PRESSAVG GPRESSAVG
ENERGY: 0 1.2036 1.9563 0.0000 0.0000 -10525.1492 1370.8980 0.0000 0.0000 1665.0541 -7486.0372 288.1834 -9151.0913 -7486.0372 288.1834 -612.8490 -542.0442 30129.7186 -612.8490 -542.0442
ENERGY: 300000 0.3241 2.0865 0.0000 0.0000 -10615.8087 1477.6439 0.0000 0.0000 1702.3044 -7433.4498 294.6306 -9135.7542 -7448.6711 294.1697 457.0925 493.8682 29968.3249 -143.3362 -75.5561
ENERGY: 600000 2.1094 2.2383 0.0000 0.0000 -10474.6307 1332.1090 0.0000 0.0000 1710.5136 -7427.6603 296.0515 -9138.1740 -7426.2569 295.7620 -915.9654 -807.0914 30335.8356 -240.5584 -171.6440
ENERGY: 900000 0.6723 1.5434 0.0000 0.0000 -10590.3278 1423.0286 0.0000 0.0000 1687.4405 -7477.6430 292.0580 -9165.0835 -7425.3295 295.1155 -239.2667 -217.0465 30378.0312 -246.5236 -186.7197
ENERGY: 1200000 1.0778 1.6086 0.0000 0.0000 -10467.9850 1357.7619 0.0000 0.0000 1720.7170 -7386.8196 297.8174 -9107.5366 -7423.4995 295.9881 -591.3425 -536.0933 30421.3544 -235.6408 -176.0261
ENERGY: 1500000 0.1910 1.8380 0.0000 0.0000 -10699.2280 1535.9427 0.0000 0.0000 1756.5062 -7404.7501 304.0117 -9161.2563 -7421.9200 296.7117 839.2413 916.4211 30046.4524 -193.0383 -126.9571
TCL: Running FEP window  16: Lambda1 0.7500000000000001 Lambda2 0.8000000000000002 [dLambda 0.050000000000000044]
TCL: Setting parameter firsttimestep to 0
TCL: Setting parameter alchLambda to 0.7500000000000001
Info: NONBONDED TABLE R-SQUARED SPACING: 0.0625
Info: NONBONDED TABLE SIZE: 705 POINTS
TCL: Setting parameter alchLambda2 to 0.8000000000000002
Info: NONBONDED TABLE R-SQUARED SPACING: 0.0625
Info: NONBONDED TABLE SIZE: 705 POINTS
TCL: Running for 1500000 steps
ETITLE: TS BOND ANGLE DIHED IMPRP ELECT VDW BOUNDARY MISC KINETIC TOTAL TEMP POTENTIAL TOTALAVG TEMPAVG PRESSURE GPRESSURE VOLUME PRESSAVG GPRESSAVG
ENERGY: 0 0.1910 1.8380 0.0000 0.0000 -10699.3611 1535.8291 0.0000 0.0000 1755.6028 -7405.9003 303.8554 -9161.5031 -7405.9003 303.8554 835.2077 924.3914 30046.4524 835.2077 924.3914
ENERGY: 300000 1.0853 1.0442 0.0000 0.0000 -10590.8868 1440.6858 0.0000 0.0000 1761.0964 -7386.9751 304.8062 -9148.0715 -7392.8928 303.1707 363.0687 457.7901 29655.2556 258.5651 357.2485
ENERGY: 600000 0.1193 1.6820 0.0000 0.0000 -10645.7900 1479.9064 0.0000 0.0000 1683.1560 -7480.9263 291.3165 -9164.0823 -7408.3418 301.1238 708.1223 733.8185 29570.0287 275.6688 353.0210
ENERGY: 900000 0.2029 1.8676 0.0000 0.0000 -10519.0216 1404.5645 0.0000 0.0000 1700.2333 -7412.1532 294.2722 -9112.3865 -7426.2836 298.6312 -251.9897 -129.8206 30181.3187 107.4868 181.8530
ENERGY: 1200000 0.3468 1.1712 0.0000 0.0000 -10583.5054 1461.4120 0.0000 0.0000 1696.8085 -7423.7669 293.6794 -9120.5754 -7418.5241 298.4869 289.6893 389.0356 29939.5749 153.7420 232.4870
ENERGY: 1500000 0.4946 0.9912 0.0000 0.0000 -10603.4631 1455.8829 0.0000 0.0000 1748.0361 -7398.0583 302.5457 -9146.0944 -7407.0253 299.5317 253.7738 333.3427 29877.4447 165.5509 240.8191
TCL: Running FEP window  17: Lambda1 0.8000000000000002 Lambda2 0.8500000000000002 [dLambda 0.050000000000000044]
TCL: Setting parameter firsttimestep to 0
TCL: Setting parameter alchLambda to 0.8000000000000002
Info: NONBONDED TABLE R-SQUARED SPACING: 0.0625
Info: NONBONDED TABLE SIZE: 705 POINTS
TCL: Setting parameter alchLambda2 to 0.8500000000000002
Info: NONBONDED TABLE R-SQUARED SPACING: 0.0625
Info: NONBONDED TABLE SIZE: 705 POINTS
TCL: Running for 1500000 steps
ETITLE: TS BOND ANGLE DIHED IMPRP ELECT VDW BOUNDARY MISC KINETIC TOTAL TEMP POTENTIAL TOTALAVG TEMPAVG PRESSURE GPRESSURE VOLUME PRESSAVG GPRESSAVG
ENERGY: 0 0.4946 0.9912 0.0000 0.0000 -10603.6108 1455.4650 0.0000 0.0000 1747.1733 -7399.4866 302.3964 -9146.6600 -7399.4866 302.3964 265.1735 332.9976 29877.4447 265.1735 332.9976
ENERGY: 300000 0.1614 2.3172 0.0000 0.0000 -10655.0570 1462.7039 0.0000 0.0000 1738.6104 -7451.2642 300.9144 -9189.8745 -7416.2157 299.1855 75.3116 153.5941 30026.5934 197.0177 264.1736
ENERGY: 600000 0.9016 0.4755 0.0000 0.0000 -10504.0708 1379.8124 0.0000 0.0000 1748.8615 -7374.0198 302.6886 -9122.8812 -7404.4975 302.0142 -388.1006 -345.6779 30233.4708 217.5804 275.3354
ENERGY: 900000 0.0829 0.9250 0.0000 0.0000 -10534.2130 1427.7126 0.0000 0.0000 1704.0121 -7401.4804 294.9262 -9105.4925 -7393.0110 300.5761 244.4706 282.9151 29879.8273 90.3507 150.8940
ENERGY: 1200000 0.4321 0.4404 0.0000 0.0000 -10446.3893 1304.7547 0.0000 0.0000 1732.7968 -7407.9653 299.9082 -9140.7621 -7393.5877 301.0040 -860.4130 -791.5011 29947.3203 16.0506 79.8564
ENERGY: 1500000 1.0199 1.3938 0.0000 0.0000 -10384.8338 1320.3440 0.0000 0.0000 1724.5325 -7337.5437 298.4778 -9062.0761 -7385.1773 301.3969 -789.1214 -679.0251 30445.4639 -95.4760 -32.2588
TCL: Running FEP window  18: Lambda1 0.8500000000000002 Lambda2 0.9000000000000002 [dLambda 0.050000000000000044]
TCL: Setting parameter firsttimestep to 0
TCL: Setting parameter alchLambda to 0.8500000000000002
Info: NONBONDED TABLE R-SQUARED SPACING: 0.0625
Info: NONBONDED TABLE SIZE: 705 POINTS
TCL: Setting parameter alchLambda2 to 0.9000000000000002
Info: NONBONDED TABLE R-SQUARED SPACING: 0.0625
Info: NONBONDED TABLE SIZE: 705 POINTS
TCL: Running for 1500000 steps
ETITLE: TS BOND ANGLE DIHED IMPRP ELECT VDW BOUNDARY MISC KINETIC TOTAL TEMP POTENTIAL TOTALAVG TEMPAVG PRESSURE GPRESSURE VOLUME PRESSAVG GPRESSAVG
ENERGY: 0 1.0199 1.3938 0.0000 0.0000 -10384.9850 1320.0928 0.0000 0.0000 1723.6483 -7338.8302 298.3248 -9062.4785 -7338.8302 298.3248 -766.1199 -676.3861 30445.4639 -766.1199 -676.3861
ENERGY: 300000 0.0372 0.8057 0.0000 0.0000 -10421.4848 1368.8536 0.0000 0.0000 1732.2752 -7319.5131 299.8179 -9051.7883 -7385.5967 296.8229 -249.9255 -199.4762 30182.5788 -563.1683 -491.4194
ENERGY: 600000 2.1417 0.6667 0.0000 0.0000 -10583.7215 1378.3774 0.0000 0.0000 1702.0366 -7500.4993 294.5843 -9202.5358 -7428.4363 294.6659 -530.0106 -443.9311 29811.7916 -520.1034 -442.3929
ENERGY: 900000 0.1914 1.7743 0.0000 0.0000 -10444.3187 1331.9530 0.0000 0.0000 1737.0690 -7373.3310 300.6476 -9110.4000 -7412.4377 297.0301 -737.1975 -635.3987 29994.2769 -490.4151 -413.0395
ENERGY: 1200000 0.4830 0.8336 0.0000 0.0000 -10514.4050 1377.6529 0.0000 0.0000 1752.5142 -7382.9214 303.3208 -9135.4355 -7408.0551 298.7503 -271.4206 -252.7908 30049.0949 -364.1808 -291.8936
ENERGY: 1500000 0.1745 2.2014 0.0000 0.0000 -10644.8165 1469.1155 0.0000 0.0000 1750.6875 -7422.6376 303.0047 -9173.3252 -7407.9141 299.4487 267.7829 332.6165 29839.7661 -282.4845 -210.7021
TCL: Running FEP window  19: Lambda1 0.9000000000000002 Lambda2 0.9500000000000003 [dLambda 0.050000000000000044]
TCL: Setting parameter firsttimestep to 0
TCL: Setting parameter alchLambda to 0.9000000000000002
Info: NONBONDED TABLE R-SQUARED SPACING: 0.0625
Info: NONBONDED TABLE SIZE: 705 POINTS
TCL: Setting parameter alchLambda2 to 0.9500000000000003
Info: NONBONDED TABLE R-SQUARED SPACING: 0.0625
Info: NONBONDED TABLE SIZE: 705 POINTS
TCL: Running for 1500000 steps
ETITLE: TS BOND ANGLE DIHED IMPRP ELECT VDW BOUNDARY MISC KINETIC TOTAL TEMP POTENTIAL TOTALAVG TEMPAVG PRESSURE GPRESSURE VOLUME PRESSAVG GPRESSAVG
ENERGY: 0 0.1745 2.2014 0.0000 0.0000 -10645.1392 1469.4298 0.0000 0.0000 1749.8218 -7423.5118 302.8548 -9173.3336 -7423.5118 302.8548 252.6981 343.3023 29839.7661 252.6981 343.3023
ENERGY: 300000 1.8306 2.2266 0.0000 0.0000 -10636.8950 1485.7331 0.0000 0.0000 1732.4751 -7414.6296 299.8525 -9147.1047 -7433.4147 299.8562 486.5571 518.1519 29948.2602 -63.1517 -20.5199
ENERGY: 600000 0.1672 1.6928 0.0000 0.0000 -10678.9030 1492.1442 0.0000 0.0000 1735.6051 -7449.2938 300.3942 -9184.8989 -7413.2547 299.2651 373.4186 480.3877 29923.8481 5.5240 56.2185
ENERGY: 900000 0.0922 0.6692 0.0000 0.0000 -10631.0614 1490.5941 0.0000 0.0000 1734.1546 -7405.5513 300.1432 -9139.7059 -7424.5094 298.1972 533.7394 599.6843 30172.6784 64.6053 121.1348
ENERGY: 1200000 0.5749 1.6745 0.0000 0.0000 -10455.5987 1336.2491 0.0000 0.0000 1727.0319 -7390.0682 298.9104 -9117.1002 -7419.6011 298.0087 -938.1323 -873.5039 30555.4958 -94.8100 -32.5141
ENERGY: 1500000 0.1529 2.0258 0.0000 0.0000 -10466.1915 1345.1841 0.0000 0.0000 1783.1625 -7335.6662 308.6253 -9118.8287 -7414.0596 299.4308 -519.6244 -446.0309 30172.4125 -140.5437 -67.6416
TCL: Running FEP window  20: Lambda1 0.9500000000000003 Lambda2 1.0    [dLambda 0.04999999999999971]
TCL: Setting parameter firsttimestep to 0
TCL: Setting parameter alchLambda to 0.9500000000000003
Info: NONBONDED TABLE R-SQUARED SPACING: 0.0625
Info: NONBONDED TABLE SIZE: 705 POINTS
TCL: Setting parameter alchLambda2 to 1.0
Info: NONBONDED TABLE R-SQUARED SPACING: 0.0625
Info: NONBONDED TABLE SIZE: 705 POINTS
TCL: Running for 1500000 steps
ETITLE: TS BOND ANGLE DIHED IMPRP ELECT VDW BOUNDARY MISC KINETIC TOTAL TEMP POTENTIAL TOTALAVG TEMPAVG PRESSURE GPRESSURE VOLUME PRESSAVG GPRESSAVG
ENERGY: 0 0.1529 2.0258 0.0000 0.0000 -10466.4293 1345.0307 0.0000 0.0000 1782.2784 -7336.9415 308.4723 -9119.2199 -7336.9415 308.4723 -537.0511 -440.1854 30172.4125 -537.0511 -440.1854
ENERGY: 300000 0.2667 1.3393 0.0000 0.0000 -10644.6467 1445.1277 0.0000 0.0000 1710.8402 -7487.0728 296.1080 -9197.9130 -7440.0893 301.4675 153.0994 215.9007 29538.8554 -265.6741 -201.2835
ENERGY: 600000 0.2752 0.6607 0.0000 0.0000 -10526.0095 1452.9923 0.0000 0.0000 1699.9458 -7372.1353 294.2224 -9072.0812 -7428.1814 299.5198 679.9075 700.5474 29781.9086 -3.0285 47.3601
ENERGY: 900000 0.2642 1.4475 0.0000 0.0000 -10748.7713 1492.2009 0.0000 0.0000 1722.0831 -7532.7757 298.0539 -9254.8588 -7425.5867 299.2257 122.6501 231.6557 30103.9929 13.2596 72.3525
ENERGY: 1200000 1.1510 2.2478 0.0000 0.0000 -10568.5249 1380.7521 0.0000 0.0000 1681.4369 -7502.9372 291.0189 -9184.3740 -7434.4271 298.6301 -347.5000 -316.7974 29740.5686 89.7099 145.1514
ENERGY: 1500000 2.1023 1.5903 0.0000 0.0000 -10603.9734 1440.4962 0.0000 0.0000 1756.6606 -7403.1240 304.0385 -9159.7846 -7424.3098 299.4571 212.9013 263.2043 30081.3097 2.9961 60.7943
TCL: Exiting due to exit command.
