Info: SIMULATION PARAMETERS:
Info: TIMESTEP               2
Info: NUMBER OF STEPS        0
Info: STEPS PER CYCLE        10
Info: PERIODIC CELL BASIS 1  31.0725 0 0
Info: PERIODIC CELL BASIS 2  0 31.7768 0
Info: PERIODIC CELL BASIS 3  0 0 31.727
Info: PERIODIC CELL CENTER   0 0 0
Info: WRAPPING WATERS AROUND PERIODIC BOUNDARIES ON OUTPUT.
Info: WRAPPING ALL CLUSTERS AROUND PERIODIC BOUNDARIES ON OUTPUT.
Info: FIRST LDB TIMESTEP     50
Info: LAST LDB TIMESTEP     -1
Info: HOM BACKGROUND SCALING 1
Info: PME BACKGROUND SCALING 1
Info: MIN ATOMS PER PATCH    40
Info: EMPTY PATCH LOAD       40 ATOMS
Info: VELOCITY FILE          mobley_2727678_equil.vel
Info: CENTER OF MASS MOVING INITIALLY? NO
Info: DIELECTRIC             1
Info: EXCLUDE                SCALED ONE-FOUR
Info: 1-4 ELECTROSTATICS SCALED BY 0.833333
Info: MODIFIED 1-4 VDW PARAMETERS WILL BE USED
Info: DCD FILENAME           mobley_2727678_prod.dcd
Info: DCD FREQUENCY          100000
Info: DCD FIRST STEP         100000
Info: DCD FILE WILL CONTAIN UNIT CELL DATA
Info: XST FILENAME           mobley_2727678_prod.xst
Info: XST FREQUENCY          100000
Info: NO VELOCITY DCD OUTPUT
Info: NO FORCE DCD OUTPUT
Info: OUTPUT FILENAME        mobley_2727678_prod
Info: BINARY OUTPUT FILES WILL BE USED
Info: RESTART FILENAME       mobley_2727678_prod.restart
Info: RESTART FREQUENCY      100000
Info: BINARY RESTART FILES WILL BE USED
Info: CUTOFF                 9
Info: PAIRLIST DISTANCE      11
Info: PAIRLIST SHRINK RATE   0.01
Info: PAIRLIST GROW RATE     0.01
Info: PAIRLIST TRIGGER       0.3
Info: PAIRLISTS PER CYCLE    2
Info: PAIRLISTS ENABLED
Info: MARGIN                 2
Info: HYDROGEN GROUP CUTOFF  2.5
Info: PATCH DIMENSION        15.5
Info: ENERGY OUTPUT STEPS    100000
Info: ENERGY EVALUATION STEPS    100000
Info: OUTPUT ENERGY PRECISION 4
Info: CROSSTERM ENERGY INCLUDED IN DIHEDRAL
Info: TIMING OUTPUT STEPS    1000000
Info: PRESSURE OUTPUT STEPS  100000
Info: ALCHEMICAL FEP ON
Info: FEP CURRENT LAMBDA VALUE     1
Info: FEP COMPARISON LAMBDA VALUE  0.95
Info: FEP INTRA-ALCHEMICAL NON-BONDED INTERACTIONS WILL BE RETAINED
Info: FEP INTRA-ALCHEMICAL BONDED INTERACTIONS WILL BE RETAINED
Info: FEP VDW SHIFTING COEFFICIENT 5
Info: FEP ELEC. ACTIVE FOR ANNIHILATED PARTICLES BETWEEN LAMBDA = 0 AND LAMBDA = 0.5
Info: FEP ELEC. ACTIVE FOR EXNIHILATED PARTICLES BETWEEN LAMBDA = 0.5 AND LAMBDA = 1
Info: FEP VDW ACTIVE FOR ANNIHILATED PARTICLES BETWEEN LAMBDA = 0 AND LAMBDA = 1
Info: FEP VDW ACTIVE FOR EXNIHILATED PARTICLES BETWEEN LAMBDA = 0 AND LAMBDA = 1
Info: FEP BOND ACTIVE FOR ANNIHILATED PARTICLES BETWEEN LAMBDA = 1 AND LAMBDA = 1
Info: FEP BOND ACTIVE FOR EXNIHILATED PARTICLES BETWEEN LAMBDA = 0 AND LAMBDA = 0
Info: LANGEVIN DYNAMICS ACTIVE
Info: LANGEVIN TEMPERATURE   300
Info: LANGEVIN USING BBK INTEGRATOR
Info: LANGEVIN DAMPING COEFFICIENT IS 1 INVERSE PS
Info: LANGEVIN DYNAMICS APPLIED TO HYDROGENS
Info: LANGEVIN PISTON PRESSURE CONTROL ACTIVE
Info:        TARGET PRESSURE IS 1.01325 BAR
Info:     OSCILLATION PERIOD IS 50 FS
Info:             DECAY TIME IS 25 FS
Info:     PISTON TEMPERATURE IS 300 K
Info:       PRESSURE CONTROL IS GROUP-BASED
Info:    INITIAL STRAIN RATE IS 0.000225559 0.000225559 0.000225559
Info:       CELL FLUCTUATION IS ISOTROPIC
Info: PARTICLE MESH EWALD (PME) ACTIVE
Info: PME TOLERANCE               1e-06
Info: PME EWALD COEFFICIENT       0.348832
Info: PME INTERPOLATION ORDER     4
Info: PME GRID DIMENSIONS         32 32 32
Info: PME MAXIMUM GRID SPACING    1
Info: PME CALCULATION WILL BE PERFORMED ON GPU
Info: FULL ELECTROSTATIC EVALUATION FREQUENCY      2
Info: USING VERLET I (r-RESPA) MTS SCHEME.
Info: C1 SPLITTING OF LONG RANGE ELECTROSTATICS
Info: PLACING ATOMS IN PATCHES BY HYDROGEN GROUPS
Info: RIGID BONDS TO HYDROGEN : ALL
Info:         ERROR TOLERANCE : 1e-08
Info:          MAX ITERATIONS : 100
Info: RIGID WATER USING SETTLE ALGORITHM
Info: RANDOM NUMBER SEED     1742170044
Info: USE HYDROGEN BONDS?    NO
Info: Using AMBER format force field!
Info: AMBER PARM FILE        mobley_2727678.prmtop
Info: COORDINATE PDB         mobley_2727678.pdb
Info: Exclusions will be read from PARM file!
Info: SCNB (VDW SCALING)     2
Info: USING ARITHMETIC MEAN TO COMBINE L-J SIGMA PARAMETERS
Info: BINARY COORDINATES     mobley_2727678_equil.coor
Info: SUMMARY OF PARAMETERS:
Info: 10 BONDS
Info: 14 ANGLES
Info:   14 HARMONIC
Info:   0 COSINE-BASED
Info: 7 DIHEDRAL
Info: 0 IMPROPER
Info: 0 CROSSTERM
Info: 0 VDW
Info: 36 VDW_PAIRS
Info: 0 NBTHOLE_PAIRS
Info: To read alchdata from file: mobley_2727678.pdb
Info: To read alchflag data from column: 5
Info: STRUCTURE SUMMARY:
Info: 2985 ATOMS
Info: 2985 BONDS
Info: 18 ANGLES
Info: 31 DIHEDRALS
Info: 0 IMPROPERS
Info: 0 CROSSTERMS
Info: 3024 EXCLUSIONS
Info: 2976 RIGID BONDS
Info: ALCH: 0 ATOMS TO DISAPPEAR IN FINAL STATE
Info: ALCH: 12 ATOMS TO APPEAR IN FINAL STATE
Info: 5979 DEGREES OF FREEDOM
Info: 1000 HYDROGEN GROUPS
Info: 3 ATOMS IN LARGEST HYDROGEN GROUP
Info: 1000 MIGRATION GROUPS
Info: 3 ATOMS IN LARGEST MIGRATION GROUP
Info: TOTAL MASS = 18091.8 amu
Info: TOTAL CHARGE = 0.000100046 e
Info: MASS DENSITY = 0.95902 g/cm^3
Info: ATOM DENSITY = 0.0952862 atoms/A^3
Info: ADDED 0 IMPLICIT EXCLUSIONS
Info: NONBONDED TABLE R-SQUARED SPACING: 0.0625
Info: NONBONDED TABLE SIZE: 705 POINTS
Info: REMOVING COM VELOCITY 0.0484838 -0.149833 0.114275
Info: Use 3D box decompostion in PME FFT.
Info: Updated CUDA force table with 4096 elements.
Info: Updated CUDA LJ table with 8 x 8 elements.
Info: Found 14 unique exclusion lists needing 24 bytes
TCL: Running for 1500000 steps
ETITLE: TS BOND ANGLE DIHED IMPRP ELECT VDW BOUNDARY MISC KINETIC TOTAL TEMP POTENTIAL TOTALAVG TEMPAVG PRESSURE GPRESSURE VOLUME PRESSAVG GPRESSAVG
ENERGY: 0 4.3201 5.4731 14.3813 0.0000 -10926.6093 1376.3033 0.0000 0.0000 1703.4540 -7822.6775 286.7426 -9526.1316 -7822.6775 286.7426 -971.7448 -877.4496 31326.6755 -971.7448 -877.4496
ENERGY: 300000 0.9252 2.5245 14.4362 0.0000 -10975.9982 1462.6381 0.0000 0.0000 1792.8250 -7702.6492 301.7864 -9495.4742 -7731.8283 297.7680 4.4517 102.7030 30975.9578 -418.8397 -335.2763
ENERGY: 600000 4.1618 4.3327 13.5798 0.0000 -11035.4377 1479.9158 0.0000 0.0000 1770.2578 -7763.1897 297.9877 -9533.4475 -7758.2077 296.6939 265.3124 288.2431 30733.6514 -201.4333 -134.2568
ENERGY: 900000 6.6564 4.5924 14.4468 0.0000 -10856.7052 1352.6909 0.0000 0.0000 1838.7874 -7639.5312 309.5233 -9478.3186 -7737.1560 299.0524 -470.0482 -345.7645 30594.5822 -147.1763 -76.6971
ENERGY: 1200000 4.2440 5.8103 15.5828 0.0000 -10921.0699 1401.5906 0.0000 0.0000 1817.1090 -7676.7333 305.8742 -9493.8423 -7732.1483 300.1745 -530.0808 -421.6984 31186.9712 -108.3742 -37.7096
ENERGY: 1500000 2.2719 4.8707 13.7275 0.0000 -11028.1036 1464.3312 0.0000 0.0000 1786.7148 -7756.1875 300.7579 -9542.9023 -7747.2533 299.2299 39.3655 106.0312 30445.9062 -86.6384 -23.2681
TCL: Running FEP window   2: Lambda1 0.95   Lambda2 0.8999999999999999 [dLambda -0.050000000000000044]
TCL: Setting parameter firsttimestep to 0
TCL: Setting parameter alchLambda to 0.95
Info: NONBONDED TABLE R-SQUARED SPACING: 0.0625
Info: NONBONDED TABLE SIZE: 705 POINTS
TCL: Setting parameter alchLambda2 to 0.8999999999999999
Info: NONBONDED TABLE R-SQUARED SPACING: 0.0625
Info: NONBONDED TABLE SIZE: 705 POINTS
TCL: Running for 1500000 steps
ETITLE: TS BOND ANGLE DIHED IMPRP ELECT VDW BOUNDARY MISC KINETIC TOTAL TEMP POTENTIAL TOTALAVG TEMPAVG PRESSURE GPRESSURE VOLUME PRESSAVG GPRESSAVG
ENERGY: 0 2.2719 4.8707 13.7275 0.0000 -11023.1931 1463.1490 0.0000 0.0000 1785.8507 -7753.3233 300.6125 -9539.1740 -7753.3233 300.6125 -0.8321 85.1600 30445.9062 -0.8321 85.1600
ENERGY: 300000 4.3436 4.4517 14.8654 0.0000 -10989.9291 1469.8478 0.0000 0.0000 1759.1740 -7737.2466 296.1220 -9496.4206 -7746.8006 300.3671 -15.9550 99.2730 30802.4099 535.5771 606.9228
ENERGY: 600000 3.5698 4.6712 14.9412 0.0000 -10894.9809 1364.6487 0.0000 0.0000 1772.5664 -7734.5835 298.3763 -9507.1499 -7746.5764 302.1565 -383.7162 -404.1787 30648.7802 313.0658 375.4199
ENERGY: 900000 2.4901 5.4810 14.1693 0.0000 -10943.2055 1387.9849 0.0000 0.0000 1777.8233 -7755.2570 299.2612 -9533.0802 -7756.0111 300.6694 -459.1920 -391.4541 30808.5984 142.2091 207.7356
ENERGY: 1200000 3.2688 3.9479 16.6185 0.0000 -10974.1087 1418.3285 0.0000 0.0000 1740.4350 -7791.5100 292.9676 -9531.9450 -7758.0748 299.7259 -293.4644 -232.0773 30658.3865 75.5241 141.0547
ENERGY: 1500000 1.4813 3.9757 15.2710 0.0000 -10915.8328 1402.3622 0.0000 0.0000 1761.1348 -7731.6079 296.4520 -9492.7427 -7757.1502 299.4951 -288.0355 -250.1269 30968.2705 -17.2811 41.6566
TCL: Running FEP window   3: Lambda1 0.8999999999999999 Lambda2 0.8499999999999999 [dLambda -0.050000000000000044]
TCL: Setting parameter firsttimestep to 0
TCL: Setting parameter alchLambda to 0.8999999999999999
Info: NONBONDED TABLE R-SQUARED SPACING: 0.0625
Info: NONBONDED TABLE SIZE: 705 POINTS
TCL: Setting parameter alchLambda2 to 0.8499999999999999
Info: NONBONDED TABLE R-SQUARED SPACING: 0.0625
Info: NONBONDED TABLE SIZE: 705 POINTS
TCL: Running for 1500000 steps
ETITLE: TS BOND ANGLE DIHED IMPRP ELECT VDW BOUNDARY MISC KINETIC TOTAL TEMP POTENTIAL TOTALAVG TEMPAVG PRESSURE GPRESSURE VOLUME PRESSAVG GPRESSAVG
ENERGY: 0 1.4813 3.9757 15.2710 0.0000 -10912.9553 1401.8476 0.0000 0.0000 1760.2527 -7730.1270 296.3035 -9490.3797 -7730.1270 296.3035 -346.1127 -263.9444 30968.2705 -346.1127 -263.9444
ENERGY: 300000 2.6592 6.9309 12.9994 0.0000 -10965.7908 1497.9946 0.0000 0.0000 1763.1926 -7682.0141 296.7984 -9445.2067 -7754.2367 294.6976 487.2818 526.8618 30905.8865 161.8613 221.0456
ENERGY: 600000 3.6609 5.2950 16.1129 0.0000 -11158.3323 1553.5377 0.0000 0.0000 1754.0147 -7825.7111 295.2535 -9579.7258 -7769.3213 296.1827 662.9666 750.0069 30673.2189 43.1870 102.0813
ENERGY: 900000 1.4926 2.7490 16.2167 0.0000 -11065.0540 1443.4748 0.0000 0.0000 1741.5787 -7859.5421 293.1601 -9601.1208 -7771.2658 298.0416 -422.7469 -371.9699 31100.4918 23.5944 85.6152
ENERGY: 1200000 4.5349 2.5511 14.4757 0.0000 -10914.8714 1401.3509 0.0000 0.0000 1813.4743 -7678.4845 305.2623 -9491.9588 -7767.1908 297.6460 -244.9609 -186.7353 30846.7816 -6.8070 55.8788
ENERGY: 1500000 4.9098 5.4039 15.7688 0.0000 -10988.9632 1458.4852 0.0000 0.0000 1809.9953 -7694.4003 304.6767 -9504.3956 -7761.1853 298.3376 185.8316 242.7136 30582.1840 -55.5606 7.2508
TCL: Running FEP window   4: Lambda1 0.8499999999999999 Lambda2 0.7999999999999998 [dLambda -0.050000000000000044]
TCL: Setting parameter firsttimestep to 0
TCL: Setting parameter alchLambda to 0.8499999999999999
Info: NONBONDED TABLE R-SQUARED SPACING: 0.0625
Info: NONBONDED TABLE SIZE: 705 POINTS
TCL: Setting parameter alchLambda2 to 0.7999999999999998
Info: NONBONDED TABLE R-SQUARED SPACING: 0.0625
Info: NONBONDED TABLE SIZE: 705 POINTS
TCL: Running for 1500000 steps
ETITLE: TS BOND ANGLE DIHED IMPRP ELECT VDW BOUNDARY MISC KINETIC TOTAL TEMP POTENTIAL TOTALAVG TEMPAVG PRESSURE GPRESSURE VOLUME PRESSAVG GPRESSAVG
ENERGY: 0 4.9098 5.4038 15.7688 0.0000 -10985.2386 1457.5306 0.0000 0.0000 1809.0824 -7692.5433 304.5231 -9501.6256 -7692.5433 304.5231 145.7193 227.3065 30582.1840 145.7193 227.3065
ENERGY: 300000 3.7081 6.8750 14.2770 0.0000 -10939.8581 1403.3329 0.0000 0.0000 1730.9597 -7780.7055 291.3727 -9511.6652 -7718.7712 299.7073 -467.7309 -427.2107 30972.0819 -272.1117 -229.4627
ENERGY: 600000 7.1739 6.3887 13.6529 0.0000 -11092.1948 1562.7508 0.0000 0.0000 1772.0060 -7730.2224 298.2820 -9502.2285 -7710.5412 300.0833 771.3991 846.6891 31323.9690 90.2433 139.2232
ENERGY: 900000 3.4939 2.1085 14.1212 0.0000 -11046.2302 1456.9787 0.0000 0.0000 1763.9713 -7805.5567 296.9295 -9569.5280 -7725.9923 299.5059 -305.2437 -204.9337 30851.1478 11.8527 68.3239
ENERGY: 1200000 4.1666 1.9913 15.2287 0.0000 -11063.7921 1525.6121 0.0000 0.0000 1755.5444 -7761.2490 295.5110 -9516.7934 -7739.0497 300.3168 433.2669 533.0033 30878.9093 53.2631 114.2301
ENERGY: 1500000 5.2222 6.6488 12.9935 0.0000 -11058.0212 1523.4967 0.0000 0.0000 1732.2878 -7777.3722 291.5962 -9509.6600 -7739.6668 299.7308 590.5445 629.7270 30545.6374 36.0778 93.1831
TCL: Running FEP window   5: Lambda1 0.7999999999999998 Lambda2 0.7499999999999998 [dLambda -0.050000000000000044]
TCL: Setting parameter firsttimestep to 0
TCL: Setting parameter alchLambda to 0.7999999999999998
Info: NONBONDED TABLE R-SQUARED SPACING: 0.0625
Info: NONBONDED TABLE SIZE: 705 POINTS
TCL: Setting parameter alchLambda2 to 0.7499999999999998
Info: NONBONDED TABLE R-SQUARED SPACING: 0.0625
Info: NONBONDED TABLE SIZE: 705 POINTS
TCL: Running for 1500000 steps
ETITLE: TS BOND ANGLE DIHED IMPRP ELECT VDW BOUNDARY MISC KINETIC TOTAL TEMP POTENTIAL TOTALAVG TEMPAVG PRESSURE GPRESSURE VOLUME PRESSAVG GPRESSAVG
ENERGY: 0 5.2222 6.6488 12.9935 0.0000 -11055.1921 1522.9560 0.0000 0.0000 1731.3951 -7775.9766 291.4459 -9507.3717 -7775.9766 291.4459 540.1950 621.4857 30545.6374 540.1950 621.4857
ENERGY: 300000 1.4072 2.1450 16.8020 0.0000 -11019.0308 1502.5768 0.0000 0.0000 1773.2105 -7722.8892 298.4847 -9496.0997 -7732.4133 295.5910 710.3402 769.6128 29931.8891 243.9225 311.3996
ENERGY: 600000 2.8595 5.0943 20.9565 0.0000 -10893.4260 1370.5608 0.0000 0.0000 1767.0795 -7726.8754 297.4527 -9493.9549 -7744.2480 295.7300 -831.3933 -820.2491 31277.2235 49.8596 112.5599
ENERGY: 900000 4.0680 2.8697 18.1481 0.0000 -10937.4496 1429.9540 0.0000 0.0000 1810.4631 -7671.9467 304.7555 -9482.4097 -7731.9160 297.6916 -270.3644 -108.8260 31049.0102 -50.6346 24.5933
ENERGY: 1200000 7.7409 4.9408 14.1408 0.0000 -11106.3005 1474.9008 0.0000 0.0000 1876.7991 -7727.7781 315.9218 -9604.5772 -7736.6437 298.8346 268.4425 340.7883 30488.0347 -106.8086 -37.1726
ENERGY: 1500000 2.4576 6.6142 13.1871 0.0000 -11197.1144 1622.5218 0.0000 0.0000 1785.9248 -7766.4088 300.6249 -9552.3336 -7736.5862 299.3770 1131.4482 1160.8708 30748.3865 -69.7554 0.1875
TCL: Running FEP window   6: Lambda1 0.7499999999999998 Lambda2 0.6999999999999997 [dLambda -0.050000000000000044]
TCL: Setting parameter firsttimestep to 0
TCL: Setting parameter alchLambda to 0.7499999999999998
Info: NONBONDED TABLE R-SQUARED SPACING: 0.0625
Info: NONBONDED TABLE SIZE: 705 POINTS
TCL: Setting parameter alchLambda2 to 0.6999999999999997
Info: NONBONDED TABLE R-SQUARED SPACING: 0.0625
Info: NONBONDED TABLE SIZE: 705 POINTS
TCL: Running for 1500000 steps
ETITLE: TS BOND ANGLE DIHED IMPRP ELECT VDW BOUNDARY MISC KINETIC TOTAL TEMP POTENTIAL TOTALAVG TEMPAVG PRESSURE GPRESSURE VOLUME PRESSAVG GPRESSAVG
ENERGY: 0 2.4576 6.6142 13.1871 0.0000 -11193.8307 1621.9865 0.0000 0.0000 1785.0530 -7764.5323 300.4782 -9549.5853 -7764.5323 300.4782 1077.0363 1151.6031 30748.3865 1077.0363 1151.6031
ENERGY: 300000 3.8713 3.6979 14.7184 0.0000 -10864.0095 1347.4322 0.0000 0.0000 1789.5051 -7704.7847 301.2276 -9494.2898 -7687.5813 302.7286 -1100.1792 -997.0815 31264.1271 -22.2324 31.5986
ENERGY: 600000 7.5136 4.2578 14.6971 0.0000 -10966.1399 1452.6035 0.0000 0.0000 1758.6617 -7728.4062 296.0357 -9487.0679 -7700.1952 301.2405 -85.5686 28.2629 30580.2132 -9.5180 39.8631
ENERGY: 900000 2.4654 1.7557 16.0874 0.0000 -11079.0159 1559.6610 0.0000 0.0000 1783.2214 -7715.8250 300.1699 -9499.0465 -7705.7518 301.9654 936.0429 949.5338 30669.9432 61.1404 106.8536
ENERGY: 1200000 4.7677 5.2942 13.7280 0.0000 -11073.7984 1514.0936 0.0000 0.0000 1767.3215 -7768.5934 297.4934 -9535.9150 -7716.8007 301.3834 554.4204 612.4524 30536.4875 156.2053 203.9280
ENERGY: 1500000 3.6685 2.2891 18.2036 0.0000 -10966.7684 1475.3468 0.0000 0.0000 1790.1292 -7677.1311 301.3327 -9467.2603 -7717.9960 301.3819 342.6249 426.7215 30603.6208 62.6361 113.4214
TCL: Running FEP window   7: Lambda1 0.6999999999999997 Lambda2 0.6499999999999997 [dLambda -0.050000000000000044]
TCL: Setting parameter firsttimestep to 0
TCL: Setting parameter alchLambda to 0.6999999999999997
Info: NONBONDED TABLE R-SQUARED SPACING: 0.0625
Info: NONBONDED TABLE SIZE: 705 POINTS
TCL: Setting parameter alchLambda2 to 0.6499999999999997
Info: NONBONDED TABLE R-SQUARED SPACING: 0.0625
Info: NONBONDED TABLE SIZE: 705 POINTS
TCL: Running for 1500000 steps
ETITLE: TS BOND ANGLE DIHED IMPRP ELECT VDW BOUNDARY MISC KINETIC TOTAL TEMP POTENTIAL TOTALAVG TEMPAVG PRESSURE GPRESSURE VOLUME PRESSAVG GPRESSAVG
ENERGY: 0 3.6685 2.2891 18.2036 0.0000 -10963.0344 1475.4454 0.0000 0.0000 1789.2284 -7674.1994 301.1810 -9463.4278 -7674.1994 301.1810 353.3148 425.6539 30603.6208 353.3148 425.6539
ENERGY: 300000 2.2047 5.3202 13.4056 0.0000 -10850.0826 1398.5945 0.0000 0.0000 1831.3457 -7599.2119 308.2706 -9430.5576 -7703.2155 299.2026 -301.8311 -277.3486 31049.8035 -78.0904 -19.7752
ENERGY: 600000 5.8337 4.9801 16.4916 0.0000 -11056.1724 1492.4179 0.0000 0.0000 1813.5975 -7722.8516 305.2831 -9536.4492 -7717.6210 298.5695 -6.5389 97.0405 30960.2007 -172.8177 -104.4971
ENERGY: 900000 3.1538 4.3855 17.8826 0.0000 -11001.9807 1392.6844 0.0000 0.0000 1750.3267 -7833.5476 294.6327 -9583.8743 -7733.0420 297.6202 -670.6996 -603.2585 30415.6718 -331.8747 -259.8485
ENERGY: 1200000 1.7814 4.7847 15.1398 0.0000 -10914.1342 1415.4759 0.0000 0.0000 1817.5155 -7659.4369 305.9426 -9476.9524 -7726.7410 298.8584 -79.1511 -38.4851 30557.1711 -284.7449 -218.3289
ENERGY: 1500000 4.5342 2.3603 14.0061 0.0000 -10999.2996 1456.5823 0.0000 0.0000 1787.0359 -7734.7809 300.8120 -9521.8167 -7718.3153 298.8375 125.9017 155.4881 30500.1168 -170.2286 -107.5923
TCL: Running FEP window   8: Lambda1 0.6499999999999997 Lambda2 0.5999999999999996 [dLambda -0.050000000000000044]
TCL: Setting parameter firsttimestep to 0
TCL: Setting parameter alchLambda to 0.6499999999999997
Info: NONBONDED TABLE R-SQUARED SPACING: 0.0625
Info: NONBONDED TABLE SIZE: 705 POINTS
TCL: Setting parameter alchLambda2 to 0.5999999999999996
Info: NONBONDED TABLE R-SQUARED SPACING: 0.0625
Info: NONBONDED TABLE SIZE: 705 POINTS
TCL: Running for 1500000 steps
ETITLE: TS BOND ANGLE DIHED IMPRP ELECT VDW BOUNDARY MISC KINETIC TOTAL TEMP POTENTIAL TOTALAVG TEMPAVG PRESSURE GPRESSURE VOLUME PRESSAVG GPRESSAVG
ENERGY: 0 4.5342 2.3603 14.0061 0.0000 -10997.5899 1456.3200 0.0000 0.0000 1786.1621 -7734.2072 300.6649 -9520.3693 -7734.2072 300.6649 70.6090 149.8855 30500.1168 70.6090 149.8855
ENERGY: 300000 2.9574 2.0027 13.9464 0.0000 -10973.0021 1379.3820 0.0000 0.0000 1817.2781 -7757.4356 305.9026 -9574.7136 -7733.8765 302.0070 -698.6039 -642.0078 30865.1305 -17.0612 33.8212
ENERGY: 600000 8.9526 4.0473 14.0936 0.0000 -11118.0326 1520.8917 0.0000 0.0000 1808.2446 -7761.8028 304.3820 -9570.0474 -7723.7589 303.0774 542.4070 611.1247 30417.4707 15.3690 67.3780
ENERGY: 900000 1.9797 5.1296 13.6742 0.0000 -10984.7349 1496.6108 0.0000 0.0000 1773.3218 -7694.0187 298.5035 -9467.3405 -7710.6172 301.9864 296.2467 346.0630 30824.4632 -7.4991 49.3215
ENERGY: 1200000 2.9229 3.4347 14.2706 0.0000 -11090.2961 1474.8361 0.0000 0.0000 1798.8932 -7795.9385 302.8079 -9594.8317 -7723.7953 301.8607 -152.1991 -119.9460 30664.5279 -69.7080 -13.2855
ENERGY: 1500000 3.2772 4.2476 15.4808 0.0000 -10919.1870 1362.9390 0.0000 0.0000 1793.0622 -7740.1802 301.8264 -9533.2424 -7726.1923 302.0280 -832.1094 -737.3375 30942.2685 -93.6611 -37.7927
TCL: Running FEP window   9: Lambda1 0.5999999999999996 Lambda2 0.5499999999999996 [dLambda -0.050000000000000044]
TCL: Setting parameter firsttimestep to 0
TCL: Setting parameter alchLambda to 0.5999999999999996
Info: NONBONDED TABLE R-SQUARED SPACING: 0.0625
Info: NONBONDED TABLE SIZE: 705 POINTS
TCL: Setting parameter alchLambda2 to 0.5499999999999996
Info: NONBONDED TABLE R-SQUARED SPACING: 0.0625
Info: NONBONDED TABLE SIZE: 705 POINTS
TCL: Running for 1500000 steps
ETITLE: TS BOND ANGLE DIHED IMPRP ELECT VDW BOUNDARY MISC KINETIC TOTAL TEMP POTENTIAL TOTALAVG TEMPAVG PRESSURE GPRESSURE VOLUME PRESSAVG GPRESSAVG
ENERGY: 0 3.2772 4.2476 15.4808 0.0000 -10917.4847 1362.8815 0.0000 0.0000 1792.1836 -7739.4141 301.6785 -9531.5976 -7739.4141 301.6785 -834.9550 -744.6557 30942.2685 -834.9550 -744.6557
ENERGY: 300000 3.6559 2.8130 13.2287 0.0000 -10875.5951 1375.3520 0.0000 0.0000 1807.9211 -7672.6244 304.3276 -9480.5455 -7707.4414 299.4909 -711.3226 -672.2167 31418.2008 -616.1478 -562.8693
ENERGY: 600000 6.3591 6.2870 12.9838 0.0000 -10995.2182 1530.8281 0.0000 0.0000 1793.4601 -7645.3000 301.8933 -9438.7601 -7698.4502 299.8780 713.1977 804.9448 30726.4928 -162.0601 -108.1503
ENERGY: 900000 4.3093 1.9689 13.7511 0.0000 -11135.0486 1582.2936 0.0000 0.0000 1834.7351 -7697.9905 308.8412 -9532.7256 -7708.2825 300.9001 1259.2767 1356.6840 30159.3935 -10.8315 44.2816
ENERGY: 1200000 1.4844 3.5024 12.7027 0.0000 -10897.6787 1419.3771 0.0000 0.0000 1828.1985 -7632.4136 307.7409 -9460.6121 -7708.1106 300.2112 -102.7154 -145.3404 30774.5174 64.8663 112.1899
ENERGY: 1500000 2.5394 3.8461 14.4489 0.0000 -11187.8417 1565.5355 0.0000 0.0000 1783.5592 -7817.9125 300.2267 -9601.4718 -7719.3314 299.9736 618.7360 657.9745 30616.6057 48.1334 98.4161
TCL: Running FEP window  10: Lambda1 0.5499999999999996 Lambda2 0.4999999999999996 [dLambda -0.04999999999999999]
TCL: Setting parameter firsttimestep to 0
TCL: Setting parameter alchLambda to 0.5499999999999996
Info: NONBONDED TABLE R-SQUARED SPACING: 0.0625
Info: NONBONDED TABLE SIZE: 705 POINTS
TCL: Setting parameter alchLambda2 to 0.4999999999999996
Info: NONBONDED TABLE R-SQUARED SPACING: 0.0625
Info: NONBONDED TABLE SIZE: 705 POINTS
TCL: Running for 1500000 steps
ETITLE: TS BOND ANGLE DIHED IMPRP ELECT VDW BOUNDARY MISC KINETIC TOTAL TEMP POTENTIAL TOTALAVG TEMPAVG PRESSURE GPRESSURE VOLUME PRESSAVG GPRESSAVG
ENERGY: 0 2.5394 3.8461 14.4489 0.0000 -11186.8800 1566.1856 0.0000 0.0000 1782.6861 -7817.1738 300.0798 -9599.8599 -7817.1738 300.0798 590.2087 659.1925 30616.6057 590.2087 659.1925
ENERGY: 300000 3.9206 3.4939 14.2104 0.0000 -10898.8509 1427.0294 0.0000 0.0000 1756.8242 -7693.3725 295.7264 -9450.1966 -7767.0804 296.5842 -239.5522 -186.9092 30564.1954 -86.6379 -41.0690
ENERGY: 600000 2.6803 3.4574 14.8153 0.0000 -10960.5892 1466.0339 0.0000 0.0000 1805.4149 -7668.1875 303.9057 -9473.6024 -7739.0458 300.1814 45.7703 123.5900 30883.6917 140.6075 185.7970
ENERGY: 900000 5.3273 3.0898 13.9646 0.0000 -11198.1135 1571.2225 0.0000 0.0000 1729.0564 -7875.4529 291.0523 -9604.5093 -7751.1966 298.6880 777.8708 882.8662 30384.4222 249.7510 293.9826
ENERGY: 1200000 4.2569 2.6866 14.6453 0.0000 -10915.8644 1414.8516 0.0000 0.0000 1756.9061 -7722.5179 295.7402 -9479.4240 -7752.2819 299.1243 -197.8767 -121.9382 30710.9091 29.4283 87.2132
ENERGY: 1500000 3.8043 5.8765 14.7850 0.0000 -10941.5741 1409.0847 0.0000 0.0000 1780.5606 -7727.4630 299.7220 -9508.0236 -7747.3839 299.1589 -575.0254 -492.3549 31035.3276 -78.3479 -19.1279
TCL: Running FEP window  11: Lambda1 0.4999999999999996 Lambda2 0.4499999999999996 [dLambda -0.04999999999999999]
TCL: Setting parameter firsttimestep to 0
TCL: Setting parameter alchLambda to 0.4999999999999996
Info: NONBONDED TABLE R-SQUARED SPACING: 0.0625
Info: NONBONDED TABLE SIZE: 705 POINTS
TCL: Setting parameter alchLambda2 to 0.4499999999999996
Info: NONBONDED TABLE R-SQUARED SPACING: 0.0625
Info: NONBONDED TABLE SIZE: 705 POINTS
TCL: Running for 1500000 steps
ETITLE: TS BOND ANGLE DIHED IMPRP ELECT VDW BOUNDARY MISC KINETIC TOTAL TEMP POTENTIAL TOTALAVG TEMPAVG PRESSURE GPRESSURE VOLUME PRESSAVG GPRESSAVG
ENERGY: 0 3.8043 5.8765 14.7850 0.0000 -10940.6726 1409.5658 0.0000 0.0000 1779.6963 -7726.9447 299.5765 -9506.6410 -7726.9447 299.5765 -573.8219 -495.5998 31035.3276 -573.8219 -495.5998
ENERGY: 300000 2.0876 5.0382 12.8886 0.0000 -10967.3902 1416.1438 0.0000 0.0000 1803.9192 -7727.3128 303.6539 -9531.2319 -7733.9580 301.6410 -405.2449 -426.8784 30540.7385 -318.4602 -287.9057
ENERGY: 600000 7.5019 3.2600 17.6590 0.0000 -11062.6903 1506.0302 0.0000 0.0000 1772.4633 -7755.7759 298.3590 -9528.2391 -7738.5487 301.0557 292.6944 285.3792 30752.1702 -313.4871 -283.3354
ENERGY: 900000 2.4501 2.2875 15.0321 0.0000 -10885.3032 1404.4393 0.0000 0.0000 1762.6540 -7698.4401 296.7078 -9461.0941 -7720.8670 301.0402 -277.3690 -205.4873 30773.4211 -253.1095 -216.7380
ENERGY: 1200000 1.4758 2.3192 16.0929 0.0000 -11032.5317 1506.7373 0.0000 0.0000 1776.7562 -7729.1504 299.0816 -9505.9066 -7718.7723 300.9504 412.4132 516.8534 30607.3301 -192.3876 -149.0343
ENERGY: 1500000 5.4399 2.4489 15.1419 0.0000 -11014.5226 1484.0664 0.0000 0.0000 1777.7437 -7729.6817 299.2478 -9507.4254 -7710.8680 300.5687 244.2477 287.1265 30678.0264 -112.6646 -67.6455
TCL: Running FEP window  12: Lambda1 0.4499999999999996 Lambda2 0.39999999999999963 [dLambda -0.04999999999999999]
TCL: Setting parameter firsttimestep to 0
TCL: Setting parameter alchLambda to 0.4499999999999996
Info: NONBONDED TABLE R-SQUARED SPACING: 0.0625
Info: NONBONDED TABLE SIZE: 705 POINTS
TCL: Setting parameter alchLambda2 to 0.39999999999999963
Info: NONBONDED TABLE R-SQUARED SPACING: 0.0625
Info: NONBONDED TABLE SIZE: 705 POINTS
TCL: Running for 1500000 steps
ETITLE: TS BOND ANGLE DIHED IMPRP ELECT VDW BOUNDARY MISC KINETIC TOTAL TEMP POTENTIAL TOTALAVG TEMPAVG PRESSURE GPRESSURE VOLUME PRESSAVG GPRESSAVG
ENERGY: 0 5.4399 2.4489 15.1419 0.0000 -11014.5216 1484.6251 0.0000 0.0000 1776.8740 -7729.9918 299.1014 -9506.8658 -7729.9918 299.1014 199.0393 284.4460 30678.0264 199.0393 284.4460
ENERGY: 300000 2.7386 5.0750 14.2480 0.0000 -10974.8793 1541.2327 0.0000 0.0000 1806.8029 -7604.7821 304.1393 -9411.5850 -7686.3796 303.4139 1029.5828 1074.9697 30665.7591 197.3599 245.1264
ENERGY: 600000 3.6289 6.8281 15.3710 0.0000 -10922.8480 1405.6408 0.0000 0.0000 1803.9322 -7687.4470 303.6561 -9491.3792 -7695.4537 301.6184 -261.3241 -184.9034 30549.2288 50.6787 99.7467
ENERGY: 900000 2.3655 3.3152 13.5274 0.0000 -11054.2826 1515.3350 0.0000 0.0000 1759.0550 -7760.6845 296.1019 -9519.7394 -7704.0468 300.9244 296.8458 275.4883 31024.2342 5.1558 34.3934
ENERGY: 1200000 3.0828 3.2988 15.9649 0.0000 -10970.1032 1391.5373 0.0000 0.0000 1742.4678 -7813.7516 293.3098 -9556.2195 -7713.0453 300.7510 -728.9722 -649.1121 30904.6425 -38.5563 -1.0508
ENERGY: 1500000 2.0845 2.3114 14.4180 0.0000 -10920.8890 1444.2939 0.0000 0.0000 1759.2578 -7698.5234 296.1361 -9457.7812 -7719.7591 299.9536 -133.9173 -37.6012 31016.1752 -30.4805 19.1781
TCL: Running FEP window  13: Lambda1 0.39999999999999963 Lambda2 0.34999999999999964 [dLambda -0.04999999999999999]
TCL: Setting parameter firsttimestep to 0
TCL: Setting parameter alchLambda to 0.39999999999999963
Info: NONBONDED TABLE R-SQUARED SPACING: 0.0625
Info: NONBONDED TABLE SIZE: 705 POINTS
TCL: Setting parameter alchLambda2 to 0.34999999999999964
Info: NONBONDED TABLE R-SQUARED SPACING: 0.0625
Info: NONBONDED TABLE SIZE: 705 POINTS
TCL: Running for 1500000 steps
ETITLE: TS BOND ANGLE DIHED IMPRP ELECT VDW BOUNDARY MISC KINETIC TOTAL TEMP POTENTIAL TOTALAVG TEMPAVG PRESSURE GPRESSURE VOLUME PRESSAVG GPRESSAVG
ENERGY: 0 2.0845 2.3114 14.4180 0.0000 -10920.8898 1444.4046 0.0000 0.0000 1758.3839 -7699.2875 295.9890 -9457.6714 -7699.2875 295.9890 -127.2817 -45.9449 31016.1752 -127.2817 -45.9449
ENERGY: 300000 3.7181 4.9327 12.8694 0.0000 -11182.6489 1571.1578 0.0000 0.0000 1792.2869 -7797.6840 301.6959 -9589.9709 -7733.1923 297.8973 1071.2951 1122.7331 30032.8380 -16.9131 68.2262
ENERGY: 600000 3.1866 8.3530 16.0487 0.0000 -10878.9576 1442.7604 0.0000 0.0000 1776.9615 -7631.6473 299.1161 -9408.6088 -7705.1768 297.2598 -64.0782 -6.3264 31176.7415 -253.5747 -186.0398
ENERGY: 900000 2.0011 3.2358 13.7479 0.0000 -11001.1201 1495.3071 0.0000 0.0000 1784.2265 -7702.6018 300.3391 -9486.8283 -7698.9994 298.8262 22.8988 97.2750 31338.4323 -233.2714 -172.3763
ENERGY: 1200000 5.3065 3.6617 14.9023 0.0000 -11046.6494 1486.4351 0.0000 0.0000 1806.7467 -7729.5970 304.1299 -9536.3437 -7708.6000 299.3017 76.4455 173.9093 30906.2372 -184.6310 -118.7316
ENERGY: 1500000 4.3048 2.6190 15.5719 0.0000 -11140.9389 1518.2879 0.0000 0.0000 1817.7018 -7782.4535 305.9740 -9600.1553 -7711.7055 300.2836 467.8839 489.2142 30372.8308 -121.1257 -58.1733
TCL: Running FEP window  14: Lambda1 0.34999999999999964 Lambda2 0.29999999999999966 [dLambda -0.04999999999999999]
TCL: Setting parameter firsttimestep to 0
TCL: Setting parameter alchLambda to 0.34999999999999964
Info: NONBONDED TABLE R-SQUARED SPACING: 0.0625
Info: NONBONDED TABLE SIZE: 705 POINTS
TCL: Setting parameter alchLambda2 to 0.29999999999999966
Info: NONBONDED TABLE R-SQUARED SPACING: 0.0625
Info: NONBONDED TABLE SIZE: 705 POINTS
TCL: Running for 1500000 steps
ETITLE: TS BOND ANGLE DIHED IMPRP ELECT VDW BOUNDARY MISC KINETIC TOTAL TEMP POTENTIAL TOTALAVG TEMPAVG PRESSURE GPRESSURE VOLUME PRESSAVG GPRESSAVG
ENERGY: 0 4.3048 2.6190 15.5719 0.0000 -11140.9378 1518.5733 0.0000 0.0000 1816.7909 -7783.0780 305.8206 -9599.8688 -7783.0780 305.8206 417.2185 483.8024 30372.8308 417.2185 483.8024
ENERGY: 300000 4.7077 2.8658 17.6318 0.0000 -11075.4878 1534.4895 0.0000 0.0000 1784.9720 -7730.8210 300.4645 -9515.7930 -7723.3098 302.7168 527.3479 616.0290 30571.6983 105.3012 148.5494
ENERGY: 600000 5.1728 5.3620 14.3204 0.0000 -10994.2801 1473.9285 0.0000 0.0000 1768.5024 -7726.9941 297.6922 -9495.4965 -7722.6737 300.9468 262.1227 310.4970 30712.1520 59.0776 109.5726
ENERGY: 900000 4.1676 4.4316 14.2501 0.0000 -10910.1211 1378.5585 0.0000 0.0000 1778.1034 -7730.6098 299.3084 -9508.7132 -7717.5045 300.3611 -572.0877 -530.5160 30992.7156 -67.9447 -19.3097
ENERGY: 1200000 3.6991 3.9870 14.0766 0.0000 -11034.8924 1466.0795 0.0000 0.0000 1765.4961 -7781.5540 297.1862 -9547.0502 -7717.7374 299.6534 -263.2592 -237.4388 31191.2591 -77.1677 -27.2811
ENERGY: 1500000 4.5792 2.3938 18.3960 0.0000 -10907.3833 1388.1854 0.0000 0.0000 1837.0152 -7656.8136 309.2250 -9493.8288 -7718.6165 300.0113 -442.4398 -428.5630 30832.2112 -79.5178 -32.5874
TCL: Running FEP window  15: Lambda1 0.29999999999999966 Lambda2 0.24999999999999967 [dLambda -0.04999999999999999]
TCL: Setting parameter firsttimestep to 0
TCL: Setting parameter alchLambda to 0.29999999999999966
Info: NONBONDED TABLE R-SQUARED SPACING: 0.0625
Info: NONBONDED TABLE SIZE: 705 POINTS
TCL: Setting parameter alchLambda2 to 0.24999999999999967
Info: NONBONDED TABLE R-SQUARED SPACING: 0.0625
Info: NONBONDED TABLE SIZE: 705 POINTS
TCL: Running for 1500000 steps
ETITLE: TS BOND ANGLE DIHED IMPRP ELECT VDW BOUNDARY MISC KINETIC TOTAL TEMP POTENTIAL TOTALAVG TEMPAVG PRESSURE GPRESSURE VOLUME PRESSAVG GPRESSAVG
ENERGY: 0 4.5792 2.3938 18.3960 0.0000 -10907.3829 1388.3339 0.0000 0.0000 1836.1470 -7657.5330 309.0788 -9493.6799 -7657.5330 309.0788 -502.6036 -434.1811 30832.2112 -502.6036 -434.1811
ENERGY: 300000 2.0222 6.2808 16.9468 0.0000 -11030.9122 1445.6395 0.0000 0.0000 1790.0012 -7770.0217 301.3111 -9560.0229 -7703.9183 303.2161 -372.4546 -232.0234 30498.1810 -268.6254 -189.5917
ENERGY: 600000 8.9743 5.8295 16.1727 0.0000 -11028.5350 1474.4033 0.0000 0.0000 1796.2360 -7726.9193 302.3606 -9523.1552 -7724.5497 302.8111 -7.4231 92.2798 30871.6448 -172.0655 -97.7353
ENERGY: 900000 3.8826 4.3110 13.7437 0.0000 -10871.1985 1433.5773 0.0000 0.0000 1784.1771 -7631.5068 300.3307 -9415.6839 -7707.1517 300.9041 88.8896 134.6125 30975.2493 -109.9121 -47.1819
ENERGY: 1200000 3.0345 5.0805 17.0822 0.0000 -11081.8202 1474.3218 0.0000 0.0000 1789.5934 -7792.7077 301.2425 -9582.3011 -7707.6454 301.5157 290.1777 322.1454 29969.8380 -80.7535 -24.1349
ENERGY: 1500000 3.3996 4.9305 17.2435 0.0000 -10855.8114 1404.6967 0.0000 0.0000 1711.3837 -7714.1574 288.0774 -9425.5411 -7713.8704 301.3392 -499.1970 -436.4155 31125.7685 -37.5792 19.9535
TCL: Running FEP window  16: Lambda1 0.24999999999999967 Lambda2 0.19999999999999968 [dLambda -0.04999999999999999]
TCL: Setting parameter firsttimestep to 0
TCL: Setting parameter alchLambda to 0.24999999999999967
Info: NONBONDED TABLE R-SQUARED SPACING: 0.0625
Info: NONBONDED TABLE SIZE: 705 POINTS
TCL: Setting parameter alchLambda2 to 0.19999999999999968
Info: NONBONDED TABLE R-SQUARED SPACING: 0.0625
Info: NONBONDED TABLE SIZE: 705 POINTS
TCL: Running for 1500000 steps
ETITLE: TS BOND ANGLE DIHED IMPRP ELECT VDW BOUNDARY MISC KINETIC TOTAL TEMP POTENTIAL TOTALAVG TEMPAVG PRESSURE GPRESSURE VOLUME PRESSAVG GPRESSAVG
ENERGY: 0 3.3996 4.9305 17.2435 0.0000 -10855.8121 1404.8622 0.0000 0.0000 1710.5124 -7714.8639 287.9308 -9425.3763 -7714.8639 287.9308 -523.0016 -442.1834 31125.7685 -523.0016 -442.1834
ENERGY: 300000 3.3260 2.6622 15.2545 0.0000 -11008.6703 1424.3810 0.0000 0.0000 1795.5171 -7767.5296 302.2396 -9563.0466 -7710.1428 296.5581 -472.5996 -408.5586 30850.7699 -599.3148 -559.8344
ENERGY: 600000 2.6085 8.5776 13.3671 0.0000 -10886.4014 1357.0869 0.0000 0.0000 1756.8394 -7747.9219 295.7290 -9504.7613 -7714.7704 298.9493 -983.5299 -859.7589 30953.6402 -323.7032 -275.6036
ENERGY: 900000 1.2856 3.3413 14.6551 0.0000 -10933.1567 1449.8441 0.0000 0.0000 1792.3823 -7671.6483 301.7119 -9464.0307 -7692.5977 300.2342 -3.3914 64.3239 30785.5409 -219.3096 -165.2418
ENERGY: 1200000 5.5922 3.9133 13.9908 0.0000 -10951.8041 1482.3561 0.0000 0.0000 1775.4869 -7670.4648 298.8679 -9445.9517 -7694.4442 300.3272 509.3855 569.5780 30482.9406 -127.6668 -71.8165
ENERGY: 1500000 3.4830 3.6648 14.2652 0.0000 -11029.4716 1559.5558 0.0000 0.0000 1730.8988 -7717.6038 291.3624 -9448.5027 -7698.3265 300.1304 814.7956 901.4095 30754.1650 -46.9974 18.1814
TCL: Running FEP window  17: Lambda1 0.19999999999999968 Lambda2 0.1499999999999997 [dLambda -0.04999999999999999]
TCL: Setting parameter firsttimestep to 0
TCL: Setting parameter alchLambda to 0.19999999999999968
Info: NONBONDED TABLE R-SQUARED SPACING: 0.0625
Info: NONBONDED TABLE SIZE: 705 POINTS
TCL: Setting parameter alchLambda2 to 0.1499999999999997
Info: NONBONDED TABLE R-SQUARED SPACING: 0.0625
Info: NONBONDED TABLE SIZE: 705 POINTS
TCL: Running for 1500000 steps
ETITLE: TS BOND ANGLE DIHED IMPRP ELECT VDW BOUNDARY MISC KINETIC TOTAL TEMP POTENTIAL TOTALAVG TEMPAVG PRESSURE GPRESSURE VOLUME PRESSAVG GPRESSAVG
ENERGY: 0 3.4831 3.6648 14.2652 0.0000 -11029.4712 1559.4154 0.0000 0.0000 1730.0307 -7718.6120 291.2163 -9448.6427 -7718.6120 291.2163 810.0035 893.7427 30754.1650 810.0035 893.7427
ENERGY: 300000 2.5832 3.6652 14.3697 0.0000 -11026.7910 1450.9778 0.0000 0.0000 1766.2221 -7788.9729 297.3084 -9555.1950 -7764.4764 295.1882 -212.5914 -69.6769 30293.4119 -90.6712 5.8217
ENERGY: 600000 4.3573 4.7295 14.4078 0.0000 -10928.7865 1461.7170 0.0000 0.0000 1772.5949 -7670.9799 298.3811 -9443.5748 -7740.2178 297.3359 340.5589 469.0353 30521.7598 145.5375 232.6260
ENERGY: 900000 2.7037 2.5182 18.7254 0.0000 -10917.6957 1350.0992 0.0000 0.0000 1775.0146 -7768.6346 298.7884 -9543.6492 -7723.7535 298.4296 -1119.4551 -1082.3870 30782.4058 86.8670 165.7928
ENERGY: 1200000 3.7576 5.2833 15.4768 0.0000 -11000.0117 1472.0452 0.0000 0.0000 1774.7372 -7728.7117 298.7417 -9503.4489 -7726.3738 298.7232 -45.7958 -6.1415 30963.0449 85.7890 166.6773
ENERGY: 1500000 5.6555 5.0825 17.6441 0.0000 -10976.1085 1452.0325 0.0000 0.0000 1781.1996 -7714.4944 299.8295 -9495.6940 -7725.8719 298.8908 -80.1533 18.5712 30639.3661 52.9758 126.1785
TCL: Running FEP window  18: Lambda1 0.1499999999999997 Lambda2 0.09999999999999969 [dLambda -0.05 ]
TCL: Setting parameter firsttimestep to 0
TCL: Setting parameter alchLambda to 0.1499999999999997
Info: NONBONDED TABLE R-SQUARED SPACING: 0.0625
Info: NONBONDED TABLE SIZE: 705 POINTS
TCL: Setting parameter alchLambda2 to 0.09999999999999969
Info: NONBONDED TABLE R-SQUARED SPACING: 0.0625
Info: NONBONDED TABLE SIZE: 705 POINTS
TCL: Running for 1500000 steps
ETITLE: TS BOND ANGLE DIHED IMPRP ELECT VDW BOUNDARY MISC KINETIC TOTAL TEMP POTENTIAL TOTALAVG TEMPAVG PRESSURE GPRESSURE VOLUME PRESSAVG GPRESSAVG
ENERGY: 0 5.6555 5.0825 17.6441 0.0000 -10976.1073 1452.4345 0.0000 0.0000 1780.2894 -7715.0013 299.6763 -9495.2907 -7715.0013 299.6763 -75.9465 14.0894 30639.3661 -75.9465 14.0894
ENERGY: 300000 2.2033 3.5239 14.7243 0.0000 -11070.4671 1578.3890 0.0000 0.0000 1783.0174 -7688.6092 300.1355 -9471.6267 -7710.3170 298.5715 947.2982 1035.8514 30674.5893 277.8723 361.7294
ENERGY: 600000 4.0099 3.7993 15.4917 0.0000 -11092.1899 1551.4687 0.0000 0.0000 1818.6076 -7698.8127 306.1264 -9517.4203 -7698.9946 300.3167 781.6337 838.6484 30469.5036 272.3664 334.8316
ENERGY: 900000 1.9374 9.3133 15.5316 0.0000 -11134.4593 1511.5496 0.0000 0.0000 1806.6451 -7789.4824 304.1128 -9596.1274 -7720.0170 299.2958 188.0338 250.1843 30642.5204 99.4695 161.3536
ENERGY: 1200000 8.8666 6.1479 14.4150 0.0000 -10859.7358 1416.7191 0.0000 0.0000 1750.8662 -7662.7209 294.7235 -9413.5872 -7708.1814 298.3929 13.7175 -3.1272 30617.4039 67.7423 119.7664
ENERGY: 1500000 5.9940 3.8626 16.0259 0.0000 -11031.3365 1506.3587 0.0000 0.0000 1779.0448 -7720.0504 299.4668 -9499.0952 -7716.6739 297.9758 254.9254 299.9914 30598.3580 54.4239 110.5996
TCL: Running FEP window  19: Lambda1 0.09999999999999969 Lambda2 0.049999999999999684 [dLambda -0.05 ]
TCL: Setting parameter firsttimestep to 0
TCL: Setting parameter alchLambda to 0.09999999999999969
Info: NONBONDED TABLE R-SQUARED SPACING: 0.0625
Info: NONBONDED TABLE SIZE: 705 POINTS
TCL: Setting parameter alchLambda2 to 0.049999999999999684
Info: NONBONDED TABLE R-SQUARED SPACING: 0.0625
Info: NONBONDED TABLE SIZE: 705 POINTS
TCL: Running for 1500000 steps
ETITLE: TS BOND ANGLE DIHED IMPRP ELECT VDW BOUNDARY MISC KINETIC TOTAL TEMP POTENTIAL TOTALAVG TEMPAVG PRESSURE GPRESSURE VOLUME PRESSAVG GPRESSAVG
ENERGY: 0 5.9940 3.8626 16.0259 0.0000 -11031.3366 1506.8609 0.0000 0.0000 1778.1440 -7720.4491 299.3152 -9498.5931 -7720.4491 299.3152 225.2894 299.6146 30598.3580 225.2894 299.6146
ENERGY: 300000 4.3285 2.4621 13.5545 0.0000 -10829.5267 1338.3848 0.0000 0.0000 1786.8847 -7683.9122 300.7865 -9470.7969 -7731.7006 300.7983 -1032.9451 -963.9669 31046.2759 -162.3343 -93.6951
ENERGY: 600000 3.6687 3.0219 14.8993 0.0000 -11011.6543 1488.8005 0.0000 0.0000 1809.0399 -7692.2239 304.5159 -9501.2639 -7711.9287 300.8242 303.6417 394.7664 30644.6104 -121.4630 -58.7627
ENERGY: 900000 2.4615 3.4426 14.4547 0.0000 -10984.1868 1499.6795 0.0000 0.0000 1732.2582 -7731.8903 291.5912 -9464.1484 -7727.1068 300.7290 546.8228 576.5283 30536.1356 4.3382 53.4309
ENERGY: 1200000 5.7144 3.0470 13.8383 0.0000 -10859.8557 1419.9695 0.0000 0.0000 1778.0963 -7639.1902 299.3072 -9417.2865 -7710.3054 300.5747 -114.3917 -35.0210 30737.7951 2.3525 58.2937
ENERGY: 1500000 2.8550 4.5894 16.2268 0.0000 -10784.2652 1360.5542 0.0000 0.0000 1783.5652 -7616.4746 300.2277 -9400.0397 -7702.1696 300.7063 -697.6241 -575.1860 30971.3133 -25.9847 26.8871
TCL: Running FEP window  20: Lambda1 0.049999999999999684 Lambda2 0.0    [dLambda -0.049999999999999684]
TCL: Setting parameter firsttimestep to 0
TCL: Setting parameter alchLambda to 0.049999999999999684
Info: NONBONDED TABLE R-SQUARED SPACING: 0.0625
Info: NONBONDED TABLE SIZE: 705 POINTS
TCL: Setting parameter alchLambda2 to 0.0
Info: NONBONDED TABLE R-SQUARED SPACING: 0.0625
Info: NONBONDED TABLE SIZE: 705 POINTS
TCL: Running for 1500000 steps
ETITLE: TS BOND ANGLE DIHED IMPRP ELECT VDW BOUNDARY MISC KINETIC TOTAL TEMP POTENTIAL TOTALAVG TEMPAVG PRESSURE GPRESSURE VOLUME PRESSAVG GPRESSAVG
ENERGY: 0 2.8550 4.5894 16.2268 0.0000 -10784.2657 1359.5857 0.0000 0.0000 1782.6627 -7618.3460 300.0758 -9401.0087 -7618.3460 300.0758 -658.2543 -580.5422 30971.3133 -658.2543 -580.5422
ENERGY: 300000 4.1588 3.0484 16.3559 0.0000 -11041.4842 1486.7488 0.0000 0.0000 1830.0326 -7701.1398 308.0496 -9531.1723 -7658.6296 304.4431 61.5376 140.3259 30830.2133 -54.3318 5.1913
ENERGY: 600000 2.4294 1.7690 13.9173 0.0000 -11021.4523 1485.2212 0.0000 0.0000 1763.7338 -7754.3817 296.8895 -9518.1154 -7685.8621 303.4210 -28.2773 14.1618 30971.2671 24.0671 97.7230
ENERGY: 900000 4.5716 6.1931 13.8927 0.0000 -11170.0631 1602.4501 0.0000 0.0000 1788.3682 -7754.5874 301.0362 -9542.9556 -7689.4126 302.7895 1317.5692 1394.1100 30011.4613 116.7287 194.7705
ENERGY: 1200000 4.8479 3.8303 12.7517 0.0000 -11012.2433 1424.7361 0.0000 0.0000 1779.7044 -7786.3729 299.5778 -9566.0773 -7690.7500 303.0020 -416.6500 -388.9632 30562.3329 -51.0633 19.7971
ENERGY: 1500000 5.2419 4.1066 13.1354 0.0000 -10992.9244 1432.1823 0.0000 0.0000 1748.2353 -7790.0230 294.2807 -9538.2583 -7709.4165 302.1073 -482.9598 -427.9187 31077.8467 -55.1434 7.4202
TCL: Exiting due to exit command.
