Info: SIMULATION PARAMETERS:
Info: TIMESTEP               2
Info: NUMBER OF STEPS        0
Info: STEPS PER CYCLE        10
Info: PERIODIC CELL BASIS 1  34.207 0 0
Info: PERIODIC CELL BASIS 2  0 36.451 0
Info: PERIODIC CELL BASIS 3  0 0 35.723
Info: PERIODIC CELL CENTER   0 0 0
Info: WRAPPING WATERS AROUND PERIODIC BOUNDARIES ON OUTPUT.
Info: WRAPPING ALL CLUSTERS AROUND PERIODIC BOUNDARIES ON OUTPUT.
Info: FIRST LDB TIMESTEP     50
Info: LAST LDB TIMESTEP     -1
Info: HOM BACKGROUND SCALING 1
Info: PME BACKGROUND SCALING 1
Info: MIN ATOMS PER PATCH    40
Info: EMPTY PATCH LOAD       40 ATOMS
Info: INITIAL TEMPERATURE    300
Info: CENTER OF MASS MOVING INITIALLY? NO
Info: DIELECTRIC             1
Info: EXCLUDE                SCALED ONE-FOUR
Info: 1-4 ELECTROSTATICS SCALED BY 0.833333
Info: MODIFIED 1-4 VDW PARAMETERS WILL BE USED
Info: DCD FILENAME           mobley_766666_equil.dcd
Info: DCD FREQUENCY          100000
Info: DCD FIRST STEP         100000
Info: DCD FILE WILL CONTAIN UNIT CELL DATA
Info: XST FILENAME           mobley_766666_equil.xst
Info: XST FREQUENCY          100000
Info: NO VELOCITY DCD OUTPUT
Info: NO FORCE DCD OUTPUT
Info: OUTPUT FILENAME        mobley_766666_equil
Info: BINARY OUTPUT FILES WILL BE USED
Info: RESTART FILENAME       mobley_766666_equil.restart
Info: RESTART FREQUENCY      100000
Info: BINARY RESTART FILES WILL BE USED
Info: CUTOFF                 9
Info: PAIRLIST DISTANCE      11
Info: PAIRLIST SHRINK RATE   0.01
Info: PAIRLIST GROW RATE     0.01
Info: PAIRLIST TRIGGER       0.3
Info: PAIRLISTS PER CYCLE    2
Info: PAIRLISTS ENABLED
Info: MARGIN                 8
Info: HYDROGEN GROUP CUTOFF  2.5
Info: PATCH DIMENSION        21.5
Info: ENERGY OUTPUT STEPS    100000
Info: ENERGY EVALUATION STEPS    100000
Info: OUTPUT ENERGY PRECISION 4
Info: CROSSTERM ENERGY INCLUDED IN DIHEDRAL
Info: TIMING OUTPUT STEPS    1000000
Info: PRESSURE OUTPUT STEPS  100000
Info: FIXED ATOMS ACTIVE
Info: LANGEVIN DYNAMICS ACTIVE
Info: LANGEVIN TEMPERATURE   30
Info: LANGEVIN USING BBK INTEGRATOR
Info: LANGEVIN DAMPING COEFFICIENT IS 1 INVERSE PS
Info: LANGEVIN DYNAMICS APPLIED TO HYDROGENS
Info: LANGEVIN PISTON PRESSURE CONTROL ACTIVE
Info:        TARGET PRESSURE IS 1.01325 BAR
Info:     OSCILLATION PERIOD IS 50 FS
Info:             DECAY TIME IS 25 FS
Info:     PISTON TEMPERATURE IS 300 K
Info:       PRESSURE CONTROL IS GROUP-BASED
Info:    INITIAL STRAIN RATE IS 0 0 0
Info:       CELL FLUCTUATION IS ISOTROPIC
Info: PARTICLE MESH EWALD (PME) ACTIVE
Info: PME TOLERANCE               1e-06
Info: PME EWALD COEFFICIENT       0.348832
Info: PME INTERPOLATION ORDER     4
Info: PME GRID DIMENSIONS         36 40 36
Info: PME MAXIMUM GRID SPACING    1
Info: FULL ELECTROSTATIC EVALUATION FREQUENCY      2
Info: USING VERLET I (r-RESPA) MTS SCHEME.
Info: C1 SPLITTING OF LONG RANGE ELECTROSTATICS
Info: PLACING ATOMS IN PATCHES BY HYDROGEN GROUPS
Info: RIGID BONDS TO HYDROGEN : ALL
Info:         ERROR TOLERANCE : 1e-08
Info:          MAX ITERATIONS : 100
Info: RIGID WATER USING SETTLE ALGORITHM
Info: RANDOM NUMBER SEED     1741925349
Info: USE HYDROGEN BONDS?    NO
Info: Using AMBER format force field!
Info: AMBER PARM FILE        mobley_766666.prmtop
Info: COORDINATE PDB         mobley_766666.pdb
Info: Exclusions will be read from PARM file!
Info: SCNB (VDW SCALING)     2
Info: USING ARITHMETIC MEAN TO COMBINE L-J SIGMA PARAMETERS
Info: BINARY COORDINATES     mobley_766666_min.coor
Info: SUMMARY OF PARAMETERS:
Info: 5 BONDS
Info: 4 ANGLES
Info:   4 HARMONIC
Info:   0 COSINE-BASED
Info: 1 DIHEDRAL
Info: 0 IMPROPER
Info: 0 CROSSTERM
Info: 0 VDW
Info: 15 VDW_PAIRS
Info: 0 NBTHOLE_PAIRS
Info: STRUCTURE SUMMARY:
Info: 2952 ATOMS
Info: 2951 BONDS
Info: 6 ANGLES
Info: 4 DIHEDRALS
Info: 0 IMPROPERS
Info: 0 CROSSTERMS
Info: 2961 EXCLUSIONS
Info: 6 FIXED ATOMS
Info: 2947 RIGID BONDS
Info: 1 RIGID BONDS BETWEEN FIXED ATOMS
Info: 5892 DEGREES OF FREEDOM
Info: 987 HYDROGEN GROUPS
Info: 3 ATOMS IN LARGEST HYDROGEN GROUP
Info: 987 MIGRATION GROUPS
Info: 3 ATOMS IN LARGEST MIGRATION GROUP
Info: 5 HYDROGEN GROUPS WITH ALL ATOMS FIXED
Info: TOTAL MASS = 17823.1 amu
Info: TOTAL CHARGE = 0.000100002 e
Info: MASS DENSITY = 0.664462 g/cm^3
Info: ATOM DENSITY = 0.0662741 atoms/A^3
Info: ADDED 0 IMPLICIT EXCLUSIONS
Info: NONBONDED TABLE R-SQUARED SPACING: 0.0625
Info: NONBONDED TABLE SIZE: 705 POINTS
Info: REMOVING COM VELOCITY 0.0558956 0.102644 -0.194922
TCL: Running for 100000 steps
ETITLE: TS BOND ANGLE DIHED IMPRP ELECT VDW BOUNDARY MISC KINETIC TOTAL TEMP POTENTIAL TOTAL3 TEMPAVG PRESSURE GPRESSURE VOLUME PRESSAVG GPRESSAVG
ENERGY: 0 0.0000 0.0000 0.0000 0.0000 -13690.7253 2430.4754 0.0000 0.0000 1774.7572 -9485.4927 303.1563 -11260.2499 -9485.1304 303.1563 599.3839 639.4606 44542.2713 599.3839 639.4606
ENERGY: 100000 0.0000 0.0000 0.0000 0.0000 -14383.8968 2564.0149 0.0000 0.0000 174.7403 -11645.1416 29.8484 -11819.8819 -11644.7015 30.9169 742.2800 781.2228 28579.0634 4.8062 4.8039
TCL: Running 100000 steps at 60 kelvin.
TCL: Setting parameter langevinTemp to 60
TCL: Running for 100000 steps
ETITLE: TS BOND ANGLE DIHED IMPRP ELECT VDW BOUNDARY MISC KINETIC TOTAL TEMP POTENTIAL TOTAL3 TEMPAVG PRESSURE GPRESSURE VOLUME PRESSAVG GPRESSAVG
ENERGY: 100000 0.0000 0.0000 0.0000 0.0000 -14383.8968 2564.0149 0.0000 0.0000 174.6513 -11645.2306 29.8332 -11819.8819 -11644.9178 29.8332 724.5855 781.2480 28579.0634 724.5855 781.2480
ENERGY: 200000 0.0000 0.0000 0.0000 0.0000 -14036.9245 2327.4727 0.0000 0.0000 356.9686 -11352.4831 60.9758 -11709.4518 -11351.3207 59.9760 -841.1642 -815.8052 28966.5903 4.6251 4.6574
TCL: Running 100000 steps at 90 kelvin.
TCL: Setting parameter langevinTemp to 90
TCL: Running for 100000 steps
ETITLE: TS BOND ANGLE DIHED IMPRP ELECT VDW BOUNDARY MISC KINETIC TOTAL TEMP POTENTIAL TOTAL3 TEMPAVG PRESSURE GPRESSURE VOLUME PRESSAVG GPRESSAVG
ENERGY: 200000 0.0000 0.0000 0.0000 0.0000 -14036.9245 2327.4727 0.0000 0.0000 356.7950 -11352.6567 60.9462 -11709.4518 -11351.7238 60.9462 -858.5731 -815.9250 28966.5903 -858.5731 -815.9250
ENERGY: 300000 0.0000 0.0000 0.0000 0.0000 -14059.7961 2433.5002 0.0000 0.0000 509.1596 -11117.1362 86.9724 -11626.2959 -11116.6648 89.8012 234.1664 289.5110 28811.9751 4.2004 4.1635
TCL: Running 100000 steps at 120 kelvin.
TCL: Setting parameter langevinTemp to 120
TCL: Running for 100000 steps
ETITLE: TS BOND ANGLE DIHED IMPRP ELECT VDW BOUNDARY MISC KINETIC TOTAL TEMP POTENTIAL TOTAL3 TEMPAVG PRESSURE GPRESSURE VOLUME PRESSAVG GPRESSAVG
ENERGY: 300000 0.0000 0.0000 0.0000 0.0000 -14059.7961 2433.5002 0.0000 0.0000 508.9028 -11117.3930 86.9286 -11626.2959 -11116.3327 86.9286 242.9526 288.8837 28811.9751 242.9526 288.8837
ENERGY: 400000 0.0000 0.0000 0.0000 0.0000 -13686.3744 2208.5239 0.0000 0.0000 685.5822 -10792.2683 117.1082 -11477.8504 -10790.7034 119.9026 -1117.3192 -1055.9701 29186.5484 3.9716 4.2076
TCL: Running 100000 steps at 150 kelvin.
TCL: Setting parameter langevinTemp to 150
TCL: Running for 100000 steps
ETITLE: TS BOND ANGLE DIHED IMPRP ELECT VDW BOUNDARY MISC KINETIC TOTAL TEMP POTENTIAL TOTAL3 TEMPAVG PRESSURE GPRESSURE VOLUME PRESSAVG GPRESSAVG
ENERGY: 400000 0.0000 0.0000 0.0000 0.0000 -13686.3744 2208.5239 0.0000 0.0000 685.2384 -10792.6121 117.0494 -11477.8504 -10791.3537 117.0494 -1114.4851 -1056.3080 29186.5484 -1114.4851 -1056.3080
ENERGY: 500000 0.0000 0.0000 0.0000 0.0000 -13593.9273 2266.5272 0.0000 0.0000 890.4850 -10436.9150 152.1088 -11327.4001 -10435.8857 150.1087 282.8943 299.2838 28722.2479 4.1019 4.0565
TCL: Running 100000 steps at 180 kelvin.
TCL: Setting parameter langevinTemp to 180
TCL: Running for 100000 steps
ETITLE: TS BOND ANGLE DIHED IMPRP ELECT VDW BOUNDARY MISC KINETIC TOTAL TEMP POTENTIAL TOTAL3 TEMPAVG PRESSURE GPRESSURE VOLUME PRESSAVG GPRESSAVG
ENERGY: 500000 0.0000 0.0000 0.0000 0.0000 -13593.9273 2266.5272 0.0000 0.0000 890.0481 -10437.3519 152.0341 -11327.4001 -10435.8265 152.0341 245.2581 298.3003 28722.2479 245.2581 298.3003
ENERGY: 600000 0.0000 0.0000 0.0000 0.0000 -12937.9934 1972.0130 0.0000 0.0000 1036.2642 -9929.7162 177.0101 -10965.9804 -9926.9751 180.0940 -1062.8429 -931.9633 28739.5744 4.1433 4.2173
TCL: Running 100000 steps at 210 kelvin.
TCL: Setting parameter langevinTemp to 210
TCL: Running for 100000 steps
ETITLE: TS BOND ANGLE DIHED IMPRP ELECT VDW BOUNDARY MISC KINETIC TOTAL TEMP POTENTIAL TOTAL3 TEMPAVG PRESSURE GPRESSURE VOLUME PRESSAVG GPRESSAVG
ENERGY: 600000 0.0000 0.0000 0.0000 0.0000 -12937.9934 1972.0130 0.0000 0.0000 1035.7377 -9930.2427 176.9202 -10965.9804 -9927.7603 176.9202 -1027.2953 -931.9409 28739.5744 -1027.2953 -931.9409
ENERGY: 700000 0.0000 0.0000 0.0000 0.0000 -12239.4444 1731.4402 0.0000 0.0000 1202.9355 -9305.0687 205.4802 -10508.0042 -9301.6306 210.1655 -1243.7929 -1132.8675 28868.9586 3.6793 3.7834
TCL: Running 100000 steps at 240 kelvin.
TCL: Setting parameter langevinTemp to 240
TCL: Running for 100000 steps
ETITLE: TS BOND ANGLE DIHED IMPRP ELECT VDW BOUNDARY MISC KINETIC TOTAL TEMP POTENTIAL TOTAL3 TEMPAVG PRESSURE GPRESSURE VOLUME PRESSAVG GPRESSAVG
ENERGY: 700000 0.0000 0.0000 0.0000 0.0000 -12239.4444 1731.4402 0.0000 0.0000 1202.3350 -9305.6692 205.3776 -10508.0042 -9304.0478 205.3776 -1207.9892 -1132.2371 28868.9586 -1207.9892 -1132.2371
ENERGY: 800000 0.0000 0.0000 0.0000 0.0000 -11866.3175 1787.5104 0.0000 0.0000 1366.6188 -8712.1882 233.4399 -10078.8071 -8709.1103 239.9432 626.0868 771.1965 28782.2282 3.6952 3.8304
TCL: Running 100000 steps at 270 kelvin.
TCL: Setting parameter langevinTemp to 270
TCL: Running for 100000 steps
ETITLE: TS BOND ANGLE DIHED IMPRP ELECT VDW BOUNDARY MISC KINETIC TOTAL TEMP POTENTIAL TOTAL3 TEMPAVG PRESSURE GPRESSURE VOLUME PRESSAVG GPRESSAVG
ENERGY: 800000 0.0000 0.0000 0.0000 0.0000 -11866.3175 1787.5104 0.0000 0.0000 1365.8681 -8712.9390 233.3116 -10078.8071 -8710.4621 233.3116 687.3667 771.3460 28782.2282 687.3667 771.3460
ENERGY: 900000 0.0000 0.0000 0.0000 0.0000 -11273.1263 1595.0372 0.0000 0.0000 1533.3466 -8144.7425 261.9196 -9678.0891 -8142.7296 269.9014 260.7405 290.0902 29602.6802 2.8195 2.8983
TCL: Running 1000000 steps at 300 kelvin.
TCL: Setting parameter langevinTemp to 300
TCL: Running for 1000000 steps
ETITLE: TS BOND ANGLE DIHED IMPRP ELECT VDW BOUNDARY MISC KINETIC TOTAL TEMP POTENTIAL TOTAL3 TEMPAVG PRESSURE GPRESSURE VOLUME PRESSAVG GPRESSAVG
ENERGY: 900000 0.0000 0.0000 0.0000 0.0000 -11273.1263 1595.0372 0.0000 0.0000 1532.6004 -8145.4887 261.7921 -9678.0891 -8142.9342 261.7921 190.0691 288.3504 29602.6802 190.0691 288.3504
ENERGY: 1100000 0.0000 0.0000 0.0000 0.0000 -10608.7948 1353.8844 0.0000 0.0000 1725.2314 -7529.6791 294.6965 -9254.9104 -7526.6705 300.3995 -761.5906 -631.9991 30706.2633 2.9481 3.1229
ENERGY: 1300000 0.0000 0.0000 0.0000 0.0000 -10583.3906 1381.1513 0.0000 0.0000 1773.4938 -7428.7455 302.9405 -9202.2393 -7424.8779 300.9331 -197.7033 -101.2213 30410.1070 3.9298 3.9043
ENERGY: 1500000 0.0000 0.0000 0.0000 0.0000 -10657.5625 1396.4836 0.0000 0.0000 1740.6717 -7520.4072 297.3340 -9261.0789 -7518.2952 299.9192 -244.9124 -175.9147 30371.5837 2.5985 2.5366
ENERGY: 1700000 0.0000 0.0000 0.0000 0.0000 -10722.5308 1484.9010 0.0000 0.0000 1789.3404 -7448.2894 305.6473 -9237.6298 -7447.3304 299.9662 621.7054 638.1610 30536.6168 1.8041 1.8712
ENERGY: 1900000 0.0000 0.0000 0.0000 0.0000 -10866.4967 1514.4929 0.0000 0.0000 1757.0209 -7594.9830 300.1267 -9352.0038 -7591.2019 300.0153 488.7560 624.2219 30148.3778 4.0036 4.0509
TCL: Exiting due to exit command.
