Info: SIMULATION PARAMETERS:
Info: TIMESTEP               2
Info: NUMBER OF STEPS        0
Info: STEPS PER CYCLE        10
Info: PERIODIC CELL BASIS 1  39.806 0 0
Info: PERIODIC CELL BASIS 2  0 41.086 0
Info: PERIODIC CELL BASIS 3  0 0 40.136
Info: PERIODIC CELL CENTER   0 0 0
Info: WRAPPING WATERS AROUND PERIODIC BOUNDARIES ON OUTPUT.
Info: WRAPPING ALL CLUSTERS AROUND PERIODIC BOUNDARIES ON OUTPUT.
Info: FIRST LDB TIMESTEP     50
Info: LAST LDB TIMESTEP     -1
Info: HOM BACKGROUND SCALING 1
Info: PME BACKGROUND SCALING 1
Info: MIN ATOMS PER PATCH    40
Info: EMPTY PATCH LOAD       40 ATOMS
Info: INITIAL TEMPERATURE    300
Info: CENTER OF MASS MOVING INITIALLY? NO
Info: DIELECTRIC             1
Info: EXCLUDE                SCALED ONE-FOUR
Info: 1-4 ELECTROSTATICS SCALED BY 0.833333
Info: MODIFIED 1-4 VDW PARAMETERS WILL BE USED
Info: DCD FILENAME           mobley_2727678_min.dcd
Info: DCD FREQUENCY          5000
Info: DCD FIRST STEP         5000
Info: DCD FILE WILL CONTAIN UNIT CELL DATA
Info: XST FILENAME           mobley_2727678_min.xst
Info: XST FREQUENCY          5000
Info: NO VELOCITY DCD OUTPUT
Info: NO FORCE DCD OUTPUT
Info: OUTPUT FILENAME        mobley_2727678_min
Info: BINARY OUTPUT FILES WILL BE USED
Info: RESTART FILENAME       mobley_2727678_min.restart
Info: RESTART FREQUENCY      5000
Info: BINARY RESTART FILES WILL BE USED
Info: CUTOFF                 9
Info: PAIRLIST DISTANCE      11
Info: PAIRLIST SHRINK RATE   0.01
Info: PAIRLIST GROW RATE     0.01
Info: PAIRLIST TRIGGER       0.3
Info: PAIRLISTS PER CYCLE    2
Info: PAIRLISTS ENABLED
Info: MARGIN                 8
Info: HYDROGEN GROUP CUTOFF  2.5
Info: PATCH DIMENSION        21.5
Info: ENERGY OUTPUT STEPS    5000
Info: ENERGY EVALUATION STEPS    5000
Info: OUTPUT ENERGY PRECISION 4
Info: CROSSTERM ENERGY INCLUDED IN DIHEDRAL
Info: TIMING OUTPUT STEPS    50000
Info: PRESSURE OUTPUT STEPS  5000
Info: LANGEVIN DYNAMICS ACTIVE
Info: LANGEVIN TEMPERATURE   300
Info: LANGEVIN USING BBK INTEGRATOR
Info: LANGEVIN DAMPING COEFFICIENT IS 1 INVERSE PS
Info: LANGEVIN DYNAMICS APPLIED TO HYDROGENS
Info: LANGEVIN PISTON PRESSURE CONTROL ACTIVE
Info:        TARGET PRESSURE IS 1.01325 BAR
Info:     OSCILLATION PERIOD IS 50 FS
Info:             DECAY TIME IS 25 FS
Info:     PISTON TEMPERATURE IS 300 K
Info:       PRESSURE CONTROL IS GROUP-BASED
Info:    INITIAL STRAIN RATE IS 0 0 0
Info:       CELL FLUCTUATION IS ISOTROPIC
Info: PARTICLE MESH EWALD (PME) ACTIVE
Info: PME TOLERANCE               1e-06
Info: PME EWALD COEFFICIENT       0.348832
Info: PME INTERPOLATION ORDER     4
Info: PME GRID DIMENSIONS         40 44 44
Info: PME MAXIMUM GRID SPACING    1
Info: FULL ELECTROSTATIC EVALUATION FREQUENCY      2
Info: USING VERLET I (r-RESPA) MTS SCHEME.
Info: C1 SPLITTING OF LONG RANGE ELECTROSTATICS
Info: PLACING ATOMS IN PATCHES BY HYDROGEN GROUPS
Info: RIGID BONDS TO HYDROGEN : ALL
Info:         ERROR TOLERANCE : 1e-08
Info:          MAX ITERATIONS : 100
Info: RIGID WATER USING SETTLE ALGORITHM
Info: RANDOM NUMBER SEED     1741320468
Info: USE HYDROGEN BONDS?    NO
Info: Using AMBER format force field!
Info: AMBER PARM FILE        mobley_2727678.prmtop
Info: COORDINATE PDB         mobley_2727678.pdb
Info: Exclusions will be read from PARM file!
Info: SCNB (VDW SCALING)     2
Info: USING ARITHMETIC MEAN TO COMBINE L-J SIGMA PARAMETERS
Info: SUMMARY OF PARAMETERS:
Info: 10 BONDS
Info: 14 ANGLES
Info:   14 HARMONIC
Info:   0 COSINE-BASED
Info: 7 DIHEDRAL
Info: 0 IMPROPER
Info: 0 CROSSTERM
Info: 0 VDW
Info: 36 VDW_PAIRS
Info: 0 NBTHOLE_PAIRS
Info: STRUCTURE SUMMARY:
Info: 4782 ATOMS
Info: 4782 BONDS
Info: 18 ANGLES
Info: 31 DIHEDRALS
Info: 0 IMPROPERS
Info: 0 CROSSTERMS
Info: 4821 EXCLUSIONS
Info: 4773 RIGID BONDS
Info: 9573 DEGREES OF FREEDOM
Info: 1599 HYDROGEN GROUPS
Info: 3 ATOMS IN LARGEST HYDROGEN GROUP
Info: 1599 MIGRATION GROUPS
Info: 3 ATOMS IN LARGEST MIGRATION GROUP
Info: TOTAL MASS = 28883.4 amu
Info: TOTAL CHARGE = 0.000100046 e
Info: MASS DENSITY = 0.730687 g/cm^3
Info: ATOM DENSITY = 0.0728506 atoms/A^3
Info: ADDED 0 IMPLICIT EXCLUSIONS
Info: NONBONDED TABLE R-SQUARED SPACING: 0.0625
Info: NONBONDED TABLE SIZE: 705 POINTS
Info: REMOVING COM VELOCITY -0.0571281 -0.076589 -0.00567687
TCL: Minimizing for 2000 steps
ETITLE: TS BOND ANGLE DIHED IMPRP ELECT VDW BOUNDARY MISC KINETIC TOTAL TEMP POTENTIAL TOTAL3 TEMPAVG PRESSURE GPRESSURE VOLUME PRESSAVG GPRESSAVG
ENERGY: 0 1.3980 1.4586 12.0001 0.0000 -15007.2430 1658.6730 0.0000 0.0000 0.0000 -13333.7133 0.0000 -13333.7133 -13333.7133 0.0000 11006.3514 -16074.7408 65641.1965 11006.3514 -16074.7408
ENERGY: 400 3.0611 3.6669 12.7656 0.0000 -19808.9306 2754.0446 0.0000 0.0000 0.0000 -17035.3924 0.0000 -17035.3924 -17035.3924 0.0000 15085.6649 15203.0187 65641.1965 15085.6649 15203.0187
ENERGY: 800 1.5373 1.8163 12.3627 0.0000 -21089.6397 3341.1446 0.0000 0.0000 0.0000 -17732.7788 0.0000 -17732.7788 -17732.7788 0.0000 17913.2130 18011.2916 65641.1965 17913.2130 18011.2916
ENERGY: 1200 2.6452 1.9124 12.2541 0.0000 -21559.4808 3526.8236 0.0000 0.0000 0.0000 -18015.8455 0.0000 -18015.8455 -18015.8455 0.0000 18826.8658 18920.0400 65641.1965 18826.8658 18920.0400
ENERGY: 1600 1.6420 1.5278 12.4015 0.0000 -21841.0410 3639.9112 0.0000 0.0000 0.0000 -18185.5585 0.0000 -18185.5585 -18185.5585 0.0000 19419.6539 19505.2693 65641.1965 19419.6539 19505.2693
ENERGY: 2000 1.3798 1.4940 12.8450 0.0000 -22100.3190 3776.7858 0.0000 0.0000 0.0000 -18307.8144 0.0000 -18307.8144 -18307.8144 0.0000 20140.3167 20233.0846 65641.1965 20140.3167 20233.0846
TCL: Exiting due to exit command.
Info: NAMD 3.0.1 for Linux-x86_64-multicore
Info: Please visit http://www.ks.uiuc.edu/Research/namd/
Info: for updates, documentation, and support information.
Info: Please cite Phillips et al., J. Chem. Phys. 153:044130 (2020) doi:10.1063/5.0014475
Info: in all publications reporting results obtained with NAMD.
Info: Based on Charm++/Converse 80000 for multicore-linux-x86_64-gcc
Info: Built Mon Oct 14 11:11:06 CDT 2024 by dhardy on athine.ks.uiuc.edu
Info: 1 NAMD  3.0.1  Linux-x86_64-multicore  16    k018  z5358697
Info: Running on 16 processors, 1 nodes, 1 physical nodes.
Info: CPU topology information available.
Info: Charm++/Converse parallel runtime startup completed at 0.00537712 s
Info: 1043.45 MB of memory in use based on /proc/self/stat
Info: Configuration file is mobley_2727678_equil.namd
Info: Working in the current directory /srv/scratch/z5358697/prod_prep_2/2727678
TCL: Running 25000 steps at 30 kelvin.
TCL: Suspending until startup complete.
Info: SIMULATION PARAMETERS:
Info: TIMESTEP               2
Info: NUMBER OF STEPS        0
Info: STEPS PER CYCLE        10
Info: PERIODIC CELL BASIS 1  39.806 0 0
Info: PERIODIC CELL BASIS 2  0 41.086 0
Info: PERIODIC CELL BASIS 3  0 0 40.136
Info: PERIODIC CELL CENTER   0 0 0
Info: WRAPPING WATERS AROUND PERIODIC BOUNDARIES ON OUTPUT.
Info: WRAPPING ALL CLUSTERS AROUND PERIODIC BOUNDARIES ON OUTPUT.
Info: FIRST LDB TIMESTEP     50
Info: LAST LDB TIMESTEP     -1
Info: HOM BACKGROUND SCALING 1
Info: PME BACKGROUND SCALING 1
Info: MIN ATOMS PER PATCH    40
Info: EMPTY PATCH LOAD       40 ATOMS
Info: INITIAL TEMPERATURE    300
Info: CENTER OF MASS MOVING INITIALLY? NO
Info: DIELECTRIC             1
Info: EXCLUDE                SCALED ONE-FOUR
Info: 1-4 ELECTROSTATICS SCALED BY 0.833333
Info: MODIFIED 1-4 VDW PARAMETERS WILL BE USED
Info: DCD FILENAME           mobley_2727678_equil.dcd
Info: DCD FREQUENCY          5000
Info: DCD FIRST STEP         5000
Info: DCD FILE WILL CONTAIN UNIT CELL DATA
Info: XST FILENAME           mobley_2727678_equil.xst
Info: XST FREQUENCY          5000
Info: NO VELOCITY DCD OUTPUT
Info: NO FORCE DCD OUTPUT
Info: OUTPUT FILENAME        mobley_2727678_equil
Info: BINARY OUTPUT FILES WILL BE USED
Info: RESTART FILENAME       mobley_2727678_equil.restart
Info: RESTART FREQUENCY      5000
Info: BINARY RESTART FILES WILL BE USED
Info: CUTOFF                 9
Info: PAIRLIST DISTANCE      11
Info: PAIRLIST SHRINK RATE   0.01
Info: PAIRLIST GROW RATE     0.01
Info: PAIRLIST TRIGGER       0.3
Info: PAIRLISTS PER CYCLE    2
Info: PAIRLISTS ENABLED
Info: MARGIN                 8
Info: HYDROGEN GROUP CUTOFF  2.5
Info: PATCH DIMENSION        21.5
Info: ENERGY OUTPUT STEPS    5000
Info: ENERGY EVALUATION STEPS    5000
Info: OUTPUT ENERGY PRECISION 4
Info: CROSSTERM ENERGY INCLUDED IN DIHEDRAL
Info: TIMING OUTPUT STEPS    50000
Info: PRESSURE OUTPUT STEPS  5000
Info: LANGEVIN DYNAMICS ACTIVE
Info: LANGEVIN TEMPERATURE   30
Info: LANGEVIN USING BBK INTEGRATOR
Info: LANGEVIN DAMPING COEFFICIENT IS 1 INVERSE PS
Info: LANGEVIN DYNAMICS APPLIED TO HYDROGENS
Info: LANGEVIN PISTON PRESSURE CONTROL ACTIVE
Info:        TARGET PRESSURE IS 1.01325 BAR
Info:     OSCILLATION PERIOD IS 50 FS
Info:             DECAY TIME IS 25 FS
Info:     PISTON TEMPERATURE IS 300 K
Info:       PRESSURE CONTROL IS GROUP-BASED
Info:    INITIAL STRAIN RATE IS 0 0 0
Info:       CELL FLUCTUATION IS ISOTROPIC
Info: PARTICLE MESH EWALD (PME) ACTIVE
Info: PME TOLERANCE               1e-06
Info: PME EWALD COEFFICIENT       0.348832
Info: PME INTERPOLATION ORDER     4
Info: PME GRID DIMENSIONS         40 44 44
Info: PME MAXIMUM GRID SPACING    1
Info: FULL ELECTROSTATIC EVALUATION FREQUENCY      2
Info: USING VERLET I (r-RESPA) MTS SCHEME.
Info: C1 SPLITTING OF LONG RANGE ELECTROSTATICS
Info: PLACING ATOMS IN PATCHES BY HYDROGEN GROUPS
Info: RIGID BONDS TO HYDROGEN : ALL
Info:         ERROR TOLERANCE : 1e-08
Info:          MAX ITERATIONS : 100
Info: RIGID WATER USING SETTLE ALGORITHM
Info: RANDOM NUMBER SEED     1741320485
Info: USE HYDROGEN BONDS?    NO
Info: Using AMBER format force field!
Info: AMBER PARM FILE        mobley_2727678.prmtop
Info: COORDINATE PDB         mobley_2727678.pdb
Info: Exclusions will be read from PARM file!
Info: SCNB (VDW SCALING)     2
Info: USING ARITHMETIC MEAN TO COMBINE L-J SIGMA PARAMETERS
Info: BINARY COORDINATES     mobley_2727678_min.coor
Info: SUMMARY OF PARAMETERS:
Info: 10 BONDS
Info: 14 ANGLES
Info:   14 HARMONIC
Info:   0 COSINE-BASED
Info: 7 DIHEDRAL
Info: 0 IMPROPER
Info: 0 CROSSTERM
Info: 0 VDW
Info: 36 VDW_PAIRS
Info: 0 NBTHOLE_PAIRS
Info: STRUCTURE SUMMARY:
Info: 4782 ATOMS
Info: 4782 BONDS
Info: 18 ANGLES
Info: 31 DIHEDRALS
Info: 0 IMPROPERS
Info: 0 CROSSTERMS
Info: 4821 EXCLUSIONS
Info: 4773 RIGID BONDS
Info: 9573 DEGREES OF FREEDOM
Info: 1599 HYDROGEN GROUPS
Info: 3 ATOMS IN LARGEST HYDROGEN GROUP
Info: 1599 MIGRATION GROUPS
Info: 3 ATOMS IN LARGEST MIGRATION GROUP
Info: TOTAL MASS = 28883.4 amu
Info: TOTAL CHARGE = 0.000100046 e
Info: MASS DENSITY = 0.730687 g/cm^3
Info: ATOM DENSITY = 0.0728506 atoms/A^3
Info: ADDED 0 IMPLICIT EXCLUSIONS
Info: NONBONDED TABLE R-SQUARED SPACING: 0.0625
Info: NONBONDED TABLE SIZE: 705 POINTS
Info: REMOVING COM VELOCITY 0.0945037 0.0335344 -0.0561636
TCL: Running for 25000 steps
ETITLE: TS BOND ANGLE DIHED IMPRP ELECT VDW BOUNDARY MISC KINETIC TOTAL TEMP POTENTIAL TOTAL3 TEMPAVG PRESSURE GPRESSURE VOLUME PRESSAVG GPRESSAVG
ENERGY: 0 1.3798 1.4940 12.8450 0.0000 -22100.3190 3776.7858 0.0000 0.0000 2891.8950 -15415.9194 304.0359 -18307.8144 -15415.3144 304.0359 171.9481 215.5101 65641.1965 171.9481 215.5101
ENERGY: 5000 1.2339 1.2340 12.6040 0.0000 -23086.2587 3933.8059 0.0000 0.0000 285.5544 -18851.8264 30.0214 -19137.3808 -18851.0387 47.7900 -319.6865 -254.8249 46844.1541 0.8937 0.8417
ENERGY: 10000 1.9448 1.4549 12.4808 0.0000 -23414.9273 4208.2473 0.0000 0.0000 292.9771 -18897.8225 30.8018 -19190.7996 -18896.7266 30.3949 1104.2506 1155.4144 46272.7768 2.9640 3.0078
ENERGY: 15000 1.3498 1.2179 12.6932 0.0000 -23265.8590 4035.5825 0.0000 0.0000 287.0424 -18927.9732 30.1779 -19215.0156 -18927.5413 30.0887 112.5508 162.0982 46521.8846 3.3742 3.4286
ENERGY: 20000 1.0089 1.9341 12.5025 0.0000 -23304.8470 4065.7697 0.0000 0.0000 279.6458 -18943.9860 29.4002 -19223.6318 -18943.2266 29.8188 239.4027 283.7906 46546.3324 2.6584 2.8997
ENERGY: 25000 0.8790 1.7501 12.8198 0.0000 -23299.8385 4051.1969 0.0000 0.0000 282.0697 -18951.1231 29.6551 -19233.1927 -18950.4979 29.8515 115.3797 172.7803 46570.3521 5.4457 5.6081
TCL: Running 25000 steps at 60 kelvin.
TCL: Setting parameter langevinTemp to 60
TCL: Running for 25000 steps
ETITLE: TS BOND ANGLE DIHED IMPRP ELECT VDW BOUNDARY MISC KINETIC TOTAL TEMP POTENTIAL TOTAL3 TEMPAVG PRESSURE GPRESSURE VOLUME PRESSAVG GPRESSAVG
ENERGY: 25000 0.8790 1.7501 12.8198 0.0000 -23299.8385 4051.1969 0.0000 0.0000 281.9278 -18951.2649 29.6401 -19233.1927 -18950.8460 29.6401 115.4133 172.8893 46570.3521 115.4133 172.8893
ENERGY: 30000 1.5503 2.7717 12.3125 0.0000 -22854.6463 3847.6458 0.0000 0.0000 575.8730 -18414.4930 60.5437 -18990.3660 -18412.9401 57.0903 -334.9916 -261.6753 46720.7047 3.0511 3.0906
ENERGY: 35000 2.5886 1.8667 12.6689 0.0000 -22986.7652 3967.3604 0.0000 0.0000 571.1174 -18431.1632 60.0437 -19002.2806 -18430.5462 60.4259 244.0368 292.2739 46656.3160 8.2994 8.4825
ENERGY: 40000 1.1643 2.2159 12.2898 0.0000 -22839.9545 3780.0214 0.0000 0.0000 568.2556 -18476.0075 59.7429 -19044.2631 -18474.6102 60.7323 -837.5034 -796.9179 46827.3842 1.9284 1.8556
ENERGY: 45000 1.3538 1.4496 12.8176 0.0000 -23014.3841 3929.4036 0.0000 0.0000 573.4024 -18495.9571 60.2840 -19069.3595 -18494.0830 60.0548 -108.3861 -59.0009 46670.3913 4.1936 4.2532
ENERGY: 50000 1.9261 2.5284 12.2490 0.0000 -23070.2038 3978.2828 0.0000 0.0000 573.9146 -18501.3029 60.3378 -19075.2175 -18499.7672 60.4797 68.9452 140.3188 46706.1176 0.2789 -0.0135
TCL: Running 25000 steps at 90 kelvin.
TCL: Setting parameter langevinTemp to 90
TCL: Running for 25000 steps
ETITLE: TS BOND ANGLE DIHED IMPRP ELECT VDW BOUNDARY MISC KINETIC TOTAL TEMP POTENTIAL TOTAL3 TEMPAVG PRESSURE GPRESSURE VOLUME PRESSAVG GPRESSAVG
ENERGY: 50000 1.9261 2.5284 12.2490 0.0000 -23070.2038 3978.2828 0.0000 0.0000 573.6242 -18501.5933 60.3073 -19075.2175 -18500.2948 60.3073 83.4867 140.2734 46706.1176 83.4867 140.2734
ENERGY: 55000 1.4161 1.5190 12.9838 0.0000 -22684.5064 3883.6557 0.0000 0.0000 869.8703 -17915.0615 91.4528 -18784.9318 -17912.6315 86.9085 493.3067 553.4029 46464.1029 0.9811 1.0346
ENERGY: 60000 1.3436 2.0534 12.5071 0.0000 -22775.5670 3942.7943 0.0000 0.0000 844.5550 -17972.3136 88.7913 -18816.8685 -17970.5731 90.0470 726.2004 770.6594 46418.2918 4.7712 4.9973
ENERGY: 65000 1.3086 2.4811 12.4091 0.0000 -22561.2231 3696.9225 0.0000 0.0000 824.3589 -18023.7428 86.6680 -18848.1017 -18021.5802 89.3397 -769.8011 -720.9121 46853.8075 4.1220 3.7849
ENERGY: 70000 1.5469 2.1842 13.0076 0.0000 -22615.3327 3757.2192 0.0000 0.0000 833.8215 -18007.5533 87.6628 -18841.3748 -18005.8514 89.7047 -455.0929 -375.9646 46828.5091 1.2840 1.0603
ENERGY: 75000 1.8164 1.7370 13.2085 0.0000 -22972.3491 4088.6336 0.0000 0.0000 874.5979 -17992.3557 91.9498 -18866.9536 -17990.3605 90.6522 1405.2072 1446.2051 46064.3726 4.7543 4.9743
TCL: Running 25000 steps at 120 kelvin.
TCL: Setting parameter langevinTemp to 120
TCL: Running for 25000 steps
ETITLE: TS BOND ANGLE DIHED IMPRP ELECT VDW BOUNDARY MISC KINETIC TOTAL TEMP POTENTIAL TOTAL3 TEMPAVG PRESSURE GPRESSURE VOLUME PRESSAVG GPRESSAVG
ENERGY: 75000 1.8164 1.7370 13.2085 0.0000 -22972.3491 4088.6336 0.0000 0.0000 874.1711 -17992.7825 91.9049 -18866.9536 -17991.3927 91.9049 1391.5895 1446.4168 46064.3726 1391.5895 1446.4168
ENERGY: 80000 1.0830 1.5331 13.0137 0.0000 -22242.1863 3661.3784 0.0000 0.0000 1141.5097 -17423.6685 120.0112 -18565.1782 -17419.7153 116.1669 -157.2681 -100.7082 46660.0284 1.7412 1.8416
ENERGY: 85000 0.9228 2.5829 12.8134 0.0000 -22217.4842 3615.6349 0.0000 0.0000 1135.2544 -17450.2758 119.3536 -18585.5302 -17448.3902 120.7225 -558.2145 -512.2776 46912.8081 -0.7789 -0.8569
ENERGY: 90000 0.4115 3.1849 12.8224 0.0000 -22317.0172 3696.8477 0.0000 0.0000 1174.9366 -17428.8141 123.5255 -18603.7507 -17425.5516 119.8288 -247.0232 -196.0840 47121.3208 0.0430 -0.1777
ENERGY: 95000 0.9156 3.0064 12.6551 0.0000 -22414.6957 3742.9288 0.0000 0.0000 1142.5001 -17512.6897 120.1154 -18655.1899 -17509.8905 120.8916 -38.2695 0.9479 46743.5486 2.2768 2.2775
ENERGY: 100000 1.2032 3.6816 13.6362 0.0000 -22316.5743 3683.6043 0.0000 0.0000 1118.9742 -17495.4747 117.6420 -18614.4489 -17493.5386 119.5194 -353.7456 -349.6367 47061.5198 3.6386 3.0670
TCL: Running 25000 steps at 150 kelvin.
TCL: Setting parameter langevinTemp to 150
TCL: Running for 25000 steps
ETITLE: TS BOND ANGLE DIHED IMPRP ELECT VDW BOUNDARY MISC KINETIC TOTAL TEMP POTENTIAL TOTAL3 TEMPAVG PRESSURE GPRESSURE VOLUME PRESSAVG GPRESSAVG
ENERGY: 100000 1.2032 3.6816 13.6362 0.0000 -22316.5743 3683.6043 0.0000 0.0000 1118.3941 -17496.0548 117.5810 -18614.4489 -17493.8406 117.5810 -399.8634 -349.3757 47061.5198 -399.8634 -349.3757
ENERGY: 105000 1.6638 2.9486 13.3179 0.0000 -21810.7659 3543.4232 0.0000 0.0000 1437.9473 -16811.4651 151.1769 -18249.4124 -16808.0538 147.3020 -229.2185 -187.3276 47317.0759 7.9638 7.3910
ENERGY: 110000 1.7604 2.5005 12.7960 0.0000 -22098.7218 3716.7994 0.0000 0.0000 1361.8905 -17002.9751 143.1807 -18364.8656 -16998.7582 149.6252 272.5340 349.0321 47185.9806 0.7360 0.9681
ENERGY: 115000 3.3736 2.6445 13.4832 0.0000 -22011.0133 3643.9196 0.0000 0.0000 1426.3046 -16921.2878 149.9528 -18347.5924 -16917.8713 148.6875 137.2632 191.5058 46969.7835 0.4769 0.3116
ENERGY: 120000 1.0552 1.1027 12.6980 0.0000 -22041.9610 3651.5871 0.0000 0.0000 1420.8346 -16954.6832 149.3777 -18375.5178 -16952.2411 149.9740 28.4406 104.4174 46954.4866 6.4038 6.6307
ENERGY: 125000 1.7611 1.9264 13.9374 0.0000 -21984.3266 3595.6750 0.0000 0.0000 1426.9048 -16944.1220 150.0159 -18371.0268 -16940.7507 150.2756 -70.2619 14.9782 46828.8953 -1.1788 -0.9604
TCL: Running 50000 steps at 180 kelvin.
TCL: Setting parameter langevinTemp to 180
TCL: Running for 50000 steps
ETITLE: TS BOND ANGLE DIHED IMPRP ELECT VDW BOUNDARY MISC KINETIC TOTAL TEMP POTENTIAL TOTAL3 TEMPAVG PRESSURE GPRESSURE VOLUME PRESSAVG GPRESSAVG
ENERGY: 125000 1.7611 1.9264 13.9374 0.0000 -21984.3266 3595.6750 0.0000 0.0000 1426.1563 -16944.8705 149.9372 -18371.0268 -16942.1600 149.9372 -47.8867 15.2351 46828.8953 -47.8867 15.2351
ENERGY: 135000 0.5908 3.6824 14.0193 0.0000 -21315.7673 3265.4985 0.0000 0.0000 1757.5233 -16274.4529 184.7751 -18031.9763 -16270.9119 179.5215 -992.3139 -919.4706 47194.0468 0.8781 0.4157
ENERGY: 145000 1.0206 3.0217 14.4684 0.0000 -21357.9297 3365.0288 0.0000 0.0000 1682.4714 -16291.9188 176.8846 -17974.3902 -16287.3582 179.6010 -356.2560 -263.8485 46721.8636 0.6663 0.2789
ENERGY: 155000 2.6469 2.4905 13.7520 0.0000 -21488.2217 3480.7139 0.0000 0.0000 1745.8619 -16242.7565 183.5491 -17988.6184 -16240.5639 180.6998 378.5782 437.0164 46343.8480 5.7527 6.3500
ENERGY: 165000 1.8759 3.2715 14.5851 0.0000 -21608.2742 3610.5622 0.0000 0.0000 1721.6454 -16256.3341 181.0031 -17977.9795 -16254.2901 180.7547 1055.4946 1090.6757 46317.9742 8.2750 8.9012
ENERGY: 175000 2.1602 2.2821 12.9437 0.0000 -21395.2498 3399.1820 0.0000 0.0000 1675.6663 -16303.0154 176.1692 -17978.6818 -16298.4541 179.8703 -136.6310 -105.6356 46655.4450 3.8239 3.7825
TCL: Running 50000 steps at 210 kelvin.
TCL: Setting parameter langevinTemp to 210
TCL: Running for 50000 steps
ETITLE: TS BOND ANGLE DIHED IMPRP ELECT VDW BOUNDARY MISC KINETIC TOTAL TEMP POTENTIAL TOTAL3 TEMPAVG PRESSURE GPRESSURE VOLUME PRESSAVG GPRESSAVG
ENERGY: 175000 2.1602 2.2821 12.9437 0.0000 -21395.2498 3399.1820 0.0000 0.0000 1674.8022 -16303.8796 176.0783 -17978.6818 -16300.6609 176.0783 -162.7850 -105.4662 46655.4450 -162.7850 -105.4662
ENERGY: 185000 3.9318 1.9750 15.7715 0.0000 -20523.2610 3194.9425 0.0000 0.0000 1984.4425 -15322.1978 208.6320 -17306.6402 -15318.3992 210.5895 179.4485 256.8034 47037.0153 5.0418 4.7361
ENERGY: 195000 1.8230 1.4987 14.9114 0.0000 -20261.2870 3126.8319 0.0000 0.0000 2047.2147 -15069.0073 215.2314 -17116.2220 -15062.1558 211.6038 453.5210 483.8880 46587.5777 4.3168 3.8088
ENERGY: 205000 3.4135 6.1641 13.3018 0.0000 -20266.1731 3089.5576 0.0000 0.0000 1961.2747 -15192.4614 206.1962 -17153.7361 -15190.1054 210.8428 60.3674 125.5324 46748.8311 3.1906 3.4799
ENERGY: 215000 3.4162 4.3996 13.3708 0.0000 -20292.7942 3055.7255 0.0000 0.0000 1978.9762 -15236.9060 208.0573 -17215.8822 -15231.9059 209.8833 -390.6115 -311.8717 47258.5250 8.0717 7.4389
ENERGY: 225000 2.1118 2.9500 13.7009 0.0000 -20342.6240 3024.5502 0.0000 0.0000 1961.2520 -15338.0592 206.1939 -17299.3112 -15334.1885 208.9970 -350.6479 -266.8967 46550.3261 -2.9368 -2.8461
TCL: Running 50000 steps at 240 kelvin.
TCL: Setting parameter langevinTemp to 240
TCL: Running for 50000 steps
ETITLE: TS BOND ANGLE DIHED IMPRP ELECT VDW BOUNDARY MISC KINETIC TOTAL TEMP POTENTIAL TOTAL3 TEMPAVG PRESSURE GPRESSURE VOLUME PRESSAVG GPRESSAVG
ENERGY: 225000 2.1118 2.9500 13.7009 0.0000 -20342.6240 3024.5502 0.0000 0.0000 1960.1977 -15339.1135 206.0830 -17299.3112 -15336.1055 206.0830 -339.4217 -266.8340 46550.3261 -339.4217 -266.8340
ENERGY: 235000 1.0916 2.6205 16.8091 0.0000 -19312.9899 2767.5606 0.0000 0.0000 2257.4890 -14267.4190 237.3384 -16524.9080 -14262.2787 239.7773 -353.9984 -273.3082 47429.8223 6.3988 6.5306
ENERGY: 245000 2.6047 4.1115 13.3518 0.0000 -19434.5546 2865.2368 0.0000 0.0000 2290.2377 -14259.0120 240.7814 -16549.2497 -14253.2064 238.6380 143.3538 226.5069 47508.1868 -2.0282 -1.7346
ENERGY: 255000 2.6610 4.3302 13.6095 0.0000 -19300.3844 2677.7728 0.0000 0.0000 2329.9354 -14272.0756 244.9549 -16602.0110 -14266.9663 239.5624 -499.5508 -439.9629 46620.3776 6.6914 6.8050
ENERGY: 265000 1.3567 2.5841 15.2049 0.0000 -19198.7075 2695.0112 0.0000 0.0000 2310.2801 -14174.2705 242.8885 -16484.5506 -14167.8166 239.1773 -457.5910 -320.7222 47313.8744 2.0244 1.9345
ENERGY: 275000 1.2551 2.6411 13.9984 0.0000 -19238.8108 2707.5955 0.0000 0.0000 2267.1925 -14246.1282 238.3585 -16513.3207 -14240.5071 240.3711 -682.2401 -579.4275 47552.6454 3.3218 3.6212
TCL: Running 50000 steps at 270 kelvin.
TCL: Setting parameter langevinTemp to 270
TCL: Running for 50000 steps
ETITLE: TS BOND ANGLE DIHED IMPRP ELECT VDW BOUNDARY MISC KINETIC TOTAL TEMP POTENTIAL TOTAL3 TEMPAVG PRESSURE GPRESSURE VOLUME PRESSAVG GPRESSAVG
ENERGY: 275000 1.2551 2.6411 13.9984 0.0000 -19238.8108 2707.5955 0.0000 0.0000 2266.0227 -14247.2980 238.2356 -16513.3207 -14243.2311 238.2356 -651.3396 -579.4889 47552.6454 -651.3396 -579.4889
ENERGY: 285000 2.0508 2.9068 14.0076 0.0000 -18226.8026 2469.7765 0.0000 0.0000 2551.6382 -13186.4228 268.2634 -15738.0610 -13183.1113 271.5430 -490.1063 -424.9135 48709.4520 3.4648 3.4425
ENERGY: 295000 2.6686 3.1630 15.3706 0.0000 -18495.8316 2648.9339 0.0000 0.0000 2561.3083 -13264.3872 269.2801 -15825.6955 -13259.6206 271.3864 733.8833 747.5453 47417.0995 2.1278 2.4214
ENERGY: 305000 4.7307 4.6438 14.5357 0.0000 -18454.2826 2539.0215 0.0000 0.0000 2550.3372 -13341.0137 268.1266 -15891.3509 -13337.7745 268.8863 -272.7916 -216.4238 48298.0208 -2.8523 -2.2075
ENERGY: 315000 1.4971 3.9851 14.8773 0.0000 -18278.0376 2413.2835 0.0000 0.0000 2577.5657 -13266.8288 270.9893 -15844.3945 -13258.8689 270.7893 -793.0995 -737.8159 48338.3866 -0.3822 -0.4957
ENERGY: 325000 2.4397 1.9813 14.1182 0.0000 -18409.7210 2550.3061 0.0000 0.0000 2534.0758 -13306.8000 266.4170 -15840.8758 -13300.7098 269.9042 -31.9510 30.3542 48062.4515 2.2229 2.6661
TCL: Running 1000000 steps at 300 kelvin.
TCL: Setting parameter langevinTemp to 300
TCL: Running for 1000000 steps
ETITLE: TS BOND ANGLE DIHED IMPRP ELECT VDW BOUNDARY MISC KINETIC TOTAL TEMP POTENTIAL TOTAL3 TEMPAVG PRESSURE GPRESSURE VOLUME PRESSAVG GPRESSAVG
ENERGY: 325000 2.4397 1.9813 14.1182 0.0000 -18409.7210 2550.3061 0.0000 0.0000 2532.7723 -13308.1034 266.2800 -15840.8758 -13303.8127 266.2800 -46.6153 29.7342 48062.4515 -46.6153 29.7342
ENERGY: 525000 1.1842 4.2804 12.8318 0.0000 -17620.2435 2373.8163 0.0000 0.0000 2911.2957 -12316.8350 306.0756 -15228.1308 -12311.4010 300.7546 252.8065 355.2447 48448.2198 8.2005 7.4817
ENERGY: 725000 1.3912 1.6195 13.8626 0.0000 -17638.2488 2494.7502 0.0000 0.0000 2840.5134 -12286.1119 298.6339 -15126.6253 -12280.9220 299.9931 695.7003 716.2043 49625.6654 6.9882 6.7244
ENERGY: 925000 3.5833 6.1253 14.2443 0.0000 -17410.3550 2252.3478 0.0000 0.0000 2838.0053 -12296.0489 298.3703 -15134.0542 -12288.8915 300.7344 -295.6204 -242.5434 49044.6727 1.8409 1.9108
ENERGY: 1125000 5.6885 5.0225 15.4376 0.0000 -17601.7963 2418.7779 0.0000 0.0000 2831.5372 -12325.3325 297.6902 -15156.8698 -12321.4991 300.4407 417.0678 504.8526 49400.9061 0.8415 0.8290
ENERGY: 1325000 3.2243 4.2850 15.0258 0.0000 -17426.7138 2264.0856 0.0000 0.0000 2895.9072 -12244.1858 304.4577 -15140.0930 -12237.0826 300.7491 -313.1058 -275.0528 49501.4194 1.4543 1.6289
TCL: Exiting due to exit command.
