Info: SIMULATION PARAMETERS:
Info: TIMESTEP               2
Info: NUMBER OF STEPS        0
Info: STEPS PER CYCLE        10
Info: PERIODIC CELL BASIS 1  36.592 0 0
Info: PERIODIC CELL BASIS 2  0 36.611 0
Info: PERIODIC CELL BASIS 3  0 0 37.195
Info: PERIODIC CELL CENTER   0 0 0
Info: WRAPPING WATERS AROUND PERIODIC BOUNDARIES ON OUTPUT.
Info: WRAPPING ALL CLUSTERS AROUND PERIODIC BOUNDARIES ON OUTPUT.
Info: FIRST LDB TIMESTEP     50
Info: LAST LDB TIMESTEP     -1
Info: HOM BACKGROUND SCALING 1
Info: PME BACKGROUND SCALING 1
Info: MIN ATOMS PER PATCH    40
Info: EMPTY PATCH LOAD       40 ATOMS
Info: INITIAL TEMPERATURE    300
Info: CENTER OF MASS MOVING INITIALLY? NO
Info: DIELECTRIC             1
Info: EXCLUDE                SCALED ONE-FOUR
Info: 1-4 ELECTROSTATICS SCALED BY 0.833333
Info: MODIFIED 1-4 VDW PARAMETERS WILL BE USED
Info: DCD FILENAME           mobley_5631798_min.dcd
Info: DCD FREQUENCY          5000
Info: DCD FIRST STEP         5000
Info: DCD FILE WILL CONTAIN UNIT CELL DATA
Info: XST FILENAME           mobley_5631798_min.xst
Info: XST FREQUENCY          5000
Info: NO VELOCITY DCD OUTPUT
Info: NO FORCE DCD OUTPUT
Info: OUTPUT FILENAME        mobley_5631798_min
Info: BINARY OUTPUT FILES WILL BE USED
Info: RESTART FILENAME       mobley_5631798_min.restart
Info: RESTART FREQUENCY      5000
Info: BINARY RESTART FILES WILL BE USED
Info: CUTOFF                 9
Info: PAIRLIST DISTANCE      11
Info: PAIRLIST SHRINK RATE   0.01
Info: PAIRLIST GROW RATE     0.01
Info: PAIRLIST TRIGGER       0.3
Info: PAIRLISTS PER CYCLE    2
Info: PAIRLISTS ENABLED
Info: MARGIN                 8
Info: HYDROGEN GROUP CUTOFF  2.5
Info: PATCH DIMENSION        21.5
Info: ENERGY OUTPUT STEPS    5000
Info: ENERGY EVALUATION STEPS    5000
Info: OUTPUT ENERGY PRECISION 4
Info: CROSSTERM ENERGY INCLUDED IN DIHEDRAL
Info: TIMING OUTPUT STEPS    50000
Info: PRESSURE OUTPUT STEPS  5000
Info: LANGEVIN DYNAMICS ACTIVE
Info: LANGEVIN TEMPERATURE   300
Info: LANGEVIN USING BBK INTEGRATOR
Info: LANGEVIN DAMPING COEFFICIENT IS 1 INVERSE PS
Info: LANGEVIN DYNAMICS APPLIED TO HYDROGENS
Info: LANGEVIN PISTON PRESSURE CONTROL ACTIVE
Info:        TARGET PRESSURE IS 1.01325 BAR
Info:     OSCILLATION PERIOD IS 50 FS
Info:             DECAY TIME IS 25 FS
Info:     PISTON TEMPERATURE IS 300 K
Info:       PRESSURE CONTROL IS GROUP-BASED
Info:    INITIAL STRAIN RATE IS 0 0 0
Info:       CELL FLUCTUATION IS ISOTROPIC
Info: PARTICLE MESH EWALD (PME) ACTIVE
Info: PME TOLERANCE               1e-06
Info: PME EWALD COEFFICIENT       0.348832
Info: PME INTERPOLATION ORDER     4
Info: PME GRID DIMENSIONS         40 40 40
Info: PME MAXIMUM GRID SPACING    1
Info: FULL ELECTROSTATIC EVALUATION FREQUENCY      2
Info: USING VERLET I (r-RESPA) MTS SCHEME.
Info: C1 SPLITTING OF LONG RANGE ELECTROSTATICS
Info: PLACING ATOMS IN PATCHES BY HYDROGEN GROUPS
Info: RIGID BONDS TO HYDROGEN : ALL
Info:         ERROR TOLERANCE : 1e-08
Info:          MAX ITERATIONS : 100
Info: RIGID WATER USING SETTLE ALGORITHM
Info: RANDOM NUMBER SEED     1741350156
Info: USE HYDROGEN BONDS?    NO
Info: Using AMBER format force field!
Info: AMBER PARM FILE        mobley_5631798.prmtop
Info: COORDINATE PDB         mobley_5631798.pdb
Info: Exclusions will be read from PARM file!
Info: SCNB (VDW SCALING)     2
Info: USING ARITHMETIC MEAN TO COMBINE L-J SIGMA PARAMETERS
Info: SUMMARY OF PARAMETERS:
Info: 3 BONDS
Info: 1 ANGLES
Info:   1 HARMONIC
Info:   0 COSINE-BASED
Info: 0 DIHEDRAL
Info: 0 IMPROPER
Info: 0 CROSSTERM
Info: 0 VDW
Info: 10 VDW_PAIRS
Info: 0 NBTHOLE_PAIRS
Info: STRUCTURE SUMMARY:
Info: 3412 ATOMS
Info: 3411 BONDS
Info: 3 ANGLES
Info: 0 DIHEDRALS
Info: 0 IMPROPERS
Info: 0 CROSSTERMS
Info: 3414 EXCLUSIONS
Info: 3411 RIGID BONDS
Info: 6825 DEGREES OF FREEDOM
Info: 1137 HYDROGEN GROUPS
Info: 4 ATOMS IN LARGEST HYDROGEN GROUP
Info: 1137 MIGRATION GROUPS
Info: 4 ATOMS IN LARGEST MIGRATION GROUP
Info: TOTAL MASS = 20483.2 amu
Info: TOTAL CHARGE = 9.99868e-05 e
Info: MASS DENSITY = 0.682614 g/cm^3
Info: ATOM DENSITY = 0.0684742 atoms/A^3
Info: ADDED 0 IMPLICIT EXCLUSIONS
Info: NONBONDED TABLE R-SQUARED SPACING: 0.0625
Info: NONBONDED TABLE SIZE: 705 POINTS
Info: REMOVING COM VELOCITY 0.109576 0.0481272 0.131174
TCL: Minimizing for 2000 steps
ETITLE: TS BOND ANGLE DIHED IMPRP ELECT VDW BOUNDARY MISC KINETIC TOTAL TEMP POTENTIAL TOTAL3 TEMPAVG PRESSURE GPRESSURE VOLUME PRESSAVG GPRESSAVG
ENERGY: 0 0.0000 0.0059 0.0000 0.0000 -10306.8998 1179.6393 0.0000 0.0000 0.0000 -9127.2546 0.0000 -9127.2546 -9127.2546 0.0000 10221.1882 -14395.5696 49829.0149 10221.1882 -14395.5696
ENERGY: 400 0.0000 0.0701 0.0000 0.0000 -15032.1227 2493.7679 0.0000 0.0000 0.0000 -12538.2847 0.0000 -12538.2847 -12538.2847 0.0000 17403.5496 17510.9994 49829.0149 17403.5496 17510.9994
ENERGY: 800 0.0000 0.0801 0.0000 0.0000 -15602.9258 2751.6637 0.0000 0.0000 0.0000 -12851.1820 0.0000 -12851.1820 -12851.1820 0.0000 19112.5495 19198.5500 49829.0149 19112.5495 19198.5500
ENERGY: 1200 0.0000 1.0396 0.0000 0.0000 -15742.5010 2799.1945 0.0000 0.0000 0.0000 -12942.2668 0.0000 -12942.2668 -12942.2668 0.0000 19451.2248 19524.4802 49829.0149 19451.2248 19524.4802
ENERGY: 1600 0.0000 1.3768 0.0000 0.0000 -15813.0638 2823.7180 0.0000 0.0000 0.0000 -12987.9691 0.0000 -12987.9691 -12987.9691 0.0000 19633.1333 19713.8093 49829.0149 19633.1333 19713.8093
ENERGY: 2000 0.0000 1.0234 0.0000 0.0000 -15838.2937 2826.8167 0.0000 0.0000 0.0000 -13010.4536 0.0000 -13010.4536 -13010.4536 0.0000 19670.3182 19751.8444 49829.0149 19670.3182 19751.8444
TCL: Exiting due to exit command.
Info: NAMD 3.0.1 for Linux-x86_64-multicore
Info: Please visit http://www.ks.uiuc.edu/Research/namd/
Info: for updates, documentation, and support information.
Info: Please cite Phillips et al., J. Chem. Phys. 153:044130 (2020) doi:10.1063/5.0014475
Info: in all publications reporting results obtained with NAMD.
Info: Based on Charm++/Converse 80000 for multicore-linux-x86_64-gcc
Info: Built Mon Oct 14 11:11:06 CDT 2024 by dhardy on athine.ks.uiuc.edu
Info: 1 NAMD  3.0.1  Linux-x86_64-multicore  16    k134  z5358697
Info: Running on 16 processors, 1 nodes, 1 physical nodes.
Info: CPU topology information available.
Info: Charm++/Converse parallel runtime startup completed at 0.00493822 s
Info: 1043.48 MB of memory in use based on /proc/self/stat
Info: Configuration file is mobley_5631798_equil.namd
Info: Working in the current directory /srv/scratch/z5358697/prod_prep_7/5631798
TCL: Running 25000 steps at 30 kelvin.
TCL: Suspending until startup complete.
Info: SIMULATION PARAMETERS:
Info: TIMESTEP               2
Info: NUMBER OF STEPS        0
Info: STEPS PER CYCLE        10
Info: PERIODIC CELL BASIS 1  36.592 0 0
Info: PERIODIC CELL BASIS 2  0 36.611 0
Info: PERIODIC CELL BASIS 3  0 0 37.195
Info: PERIODIC CELL CENTER   0 0 0
Info: WRAPPING WATERS AROUND PERIODIC BOUNDARIES ON OUTPUT.
Info: WRAPPING ALL CLUSTERS AROUND PERIODIC BOUNDARIES ON OUTPUT.
Info: FIRST LDB TIMESTEP     50
Info: LAST LDB TIMESTEP     -1
Info: HOM BACKGROUND SCALING 1
Info: PME BACKGROUND SCALING 1
Info: MIN ATOMS PER PATCH    40
Info: EMPTY PATCH LOAD       40 ATOMS
Info: INITIAL TEMPERATURE    300
Info: CENTER OF MASS MOVING INITIALLY? NO
Info: DIELECTRIC             1
Info: EXCLUDE                SCALED ONE-FOUR
Info: 1-4 ELECTROSTATICS SCALED BY 0.833333
Info: MODIFIED 1-4 VDW PARAMETERS WILL BE USED
Info: DCD FILENAME           mobley_5631798_equil.dcd
Info: DCD FREQUENCY          5000
Info: DCD FIRST STEP         5000
Info: DCD FILE WILL CONTAIN UNIT CELL DATA
Info: XST FILENAME           mobley_5631798_equil.xst
Info: XST FREQUENCY          5000
Info: NO VELOCITY DCD OUTPUT
Info: NO FORCE DCD OUTPUT
Info: OUTPUT FILENAME        mobley_5631798_equil
Info: BINARY OUTPUT FILES WILL BE USED
Info: RESTART FILENAME       mobley_5631798_equil.restart
Info: RESTART FREQUENCY      5000
Info: BINARY RESTART FILES WILL BE USED
Info: CUTOFF                 9
Info: PAIRLIST DISTANCE      11
Info: PAIRLIST SHRINK RATE   0.01
Info: PAIRLIST GROW RATE     0.01
Info: PAIRLIST TRIGGER       0.3
Info: PAIRLISTS PER CYCLE    2
Info: PAIRLISTS ENABLED
Info: MARGIN                 8
Info: HYDROGEN GROUP CUTOFF  2.5
Info: PATCH DIMENSION        21.5
Info: ENERGY OUTPUT STEPS    5000
Info: ENERGY EVALUATION STEPS    5000
Info: OUTPUT ENERGY PRECISION 4
Info: CROSSTERM ENERGY INCLUDED IN DIHEDRAL
Info: TIMING OUTPUT STEPS    50000
Info: PRESSURE OUTPUT STEPS  5000
Info: LANGEVIN DYNAMICS ACTIVE
Info: LANGEVIN TEMPERATURE   30
Info: LANGEVIN USING BBK INTEGRATOR
Info: LANGEVIN DAMPING COEFFICIENT IS 1 INVERSE PS
Info: LANGEVIN DYNAMICS APPLIED TO HYDROGENS
Info: LANGEVIN PISTON PRESSURE CONTROL ACTIVE
Info:        TARGET PRESSURE IS 1.01325 BAR
Info:     OSCILLATION PERIOD IS 50 FS
Info:             DECAY TIME IS 25 FS
Info:     PISTON TEMPERATURE IS 300 K
Info:       PRESSURE CONTROL IS GROUP-BASED
Info:    INITIAL STRAIN RATE IS 0 0 0
Info:       CELL FLUCTUATION IS ISOTROPIC
Info: PARTICLE MESH EWALD (PME) ACTIVE
Info: PME TOLERANCE               1e-06
Info: PME EWALD COEFFICIENT       0.348832
Info: PME INTERPOLATION ORDER     4
Info: PME GRID DIMENSIONS         40 40 40
Info: PME MAXIMUM GRID SPACING    1
Info: FULL ELECTROSTATIC EVALUATION FREQUENCY      2
Info: USING VERLET I (r-RESPA) MTS SCHEME.
Info: C1 SPLITTING OF LONG RANGE ELECTROSTATICS
Info: PLACING ATOMS IN PATCHES BY HYDROGEN GROUPS
Info: RIGID BONDS TO HYDROGEN : ALL
Info:         ERROR TOLERANCE : 1e-08
Info:          MAX ITERATIONS : 100
Info: RIGID WATER USING SETTLE ALGORITHM
Info: RANDOM NUMBER SEED     1741350171
Info: USE HYDROGEN BONDS?    NO
Info: Using AMBER format force field!
Info: AMBER PARM FILE        mobley_5631798.prmtop
Info: COORDINATE PDB         mobley_5631798.pdb
Info: Exclusions will be read from PARM file!
Info: SCNB (VDW SCALING)     2
Info: USING ARITHMETIC MEAN TO COMBINE L-J SIGMA PARAMETERS
Info: BINARY COORDINATES     mobley_5631798_min.coor
Info: SUMMARY OF PARAMETERS:
Info: 3 BONDS
Info: 1 ANGLES
Info:   1 HARMONIC
Info:   0 COSINE-BASED
Info: 0 DIHEDRAL
Info: 0 IMPROPER
Info: 0 CROSSTERM
Info: 0 VDW
Info: 10 VDW_PAIRS
Info: 0 NBTHOLE_PAIRS
Info: STRUCTURE SUMMARY:
Info: 3412 ATOMS
Info: 3411 BONDS
Info: 3 ANGLES
Info: 0 DIHEDRALS
Info: 0 IMPROPERS
Info: 0 CROSSTERMS
Info: 3414 EXCLUSIONS
Info: 3411 RIGID BONDS
Info: 6825 DEGREES OF FREEDOM
Info: 1137 HYDROGEN GROUPS
Info: 4 ATOMS IN LARGEST HYDROGEN GROUP
Info: 1137 MIGRATION GROUPS
Info: 4 ATOMS IN LARGEST MIGRATION GROUP
Info: TOTAL MASS = 20483.2 amu
Info: TOTAL CHARGE = 9.99868e-05 e
Info: MASS DENSITY = 0.682614 g/cm^3
Info: ATOM DENSITY = 0.0684742 atoms/A^3
Info: ADDED 0 IMPLICIT EXCLUSIONS
Info: NONBONDED TABLE R-SQUARED SPACING: 0.0625
Info: NONBONDED TABLE SIZE: 705 POINTS
Info: REMOVING COM VELOCITY 0.0673193 0.181543 -0.122474
TCL: Running for 25000 steps
ETITLE: TS BOND ANGLE DIHED IMPRP ELECT VDW BOUNDARY MISC KINETIC TOTAL TEMP POTENTIAL TOTAL3 TEMPAVG PRESSURE GPRESSURE VOLUME PRESSAVG GPRESSAVG
ENERGY: 0 0.0000 1.0234 0.0000 0.0000 -15838.2937 2826.8167 0.0000 0.0000 1992.3319 -11018.1217 293.7984 -13010.4536 -11017.6983 293.7984 591.3329 633.7689 49829.0149 591.3329 633.7689
ENERGY: 5000 0.0000 1.5930 0.0000 0.0000 -16404.8346 2834.2341 0.0000 0.0000 208.7269 -13360.2806 30.7798 -13569.0075 -13359.6303 47.4109 -244.8100 -183.5436 33450.1124 0.4618 0.7583
ENERGY: 10000 0.0000 1.2456 0.0000 0.0000 -16423.3982 2832.4284 0.0000 0.0000 202.9427 -13386.7816 29.9269 -13589.7242 -13386.0296 30.2613 -217.2277 -171.5344 33290.8386 0.2245 0.0874
ENERGY: 15000 0.0000 1.2977 0.0000 0.0000 -16507.8253 2904.2540 0.0000 0.0000 205.8089 -13396.4646 30.3495 -13602.2736 -13395.9417 29.8218 319.6355 365.7884 33162.5636 4.9713 4.9046
ENERGY: 20000 0.0000 1.1908 0.0000 0.0000 -16475.5037 2866.2369 0.0000 0.0000 201.5789 -13406.4971 29.7258 -13608.0760 -13406.2398 29.9311 -80.4178 -0.6818 33328.2659 1.5159 1.5925
ENERGY: 25000 0.0000 0.8377 0.0000 0.0000 -16500.4200 2891.0513 0.0000 0.0000 209.4080 -13399.1230 30.8803 -13608.5310 -13398.4557 30.0016 163.1165 226.9169 33177.7301 3.7977 3.8155
TCL: Running 25000 steps at 60 kelvin.
TCL: Setting parameter langevinTemp to 60
TCL: Running for 25000 steps
ETITLE: TS BOND ANGLE DIHED IMPRP ELECT VDW BOUNDARY MISC KINETIC TOTAL TEMP POTENTIAL TOTAL3 TEMPAVG PRESSURE GPRESSURE VOLUME PRESSAVG GPRESSAVG
ENERGY: 25000 0.0000 0.8377 0.0000 0.0000 -16500.4200 2891.0513 0.0000 0.0000 209.3077 -13399.2234 30.8655 -13608.5310 -13398.9264 30.8655 172.5211 227.2238 33177.7301 172.5211 227.2238
ENERGY: 30000 0.0000 1.9960 0.0000 0.0000 -16242.0177 2817.7623 0.0000 0.0000 405.2166 -13017.0428 59.7551 -13422.2594 -13015.7926 57.6511 182.2944 258.9139 33424.2458 -0.7506 -0.9338
ENERGY: 35000 0.0000 2.1855 0.0000 0.0000 -16189.7272 2730.1923 0.0000 0.0000 413.1491 -13044.2003 60.9249 -13457.3494 -13042.9491 60.3196 -511.3401 -447.2065 33384.4707 10.3179 10.2588
ENERGY: 40000 0.0000 1.8206 0.0000 0.0000 -16189.7961 2722.9540 0.0000 0.0000 397.2161 -13067.8054 58.5753 -13465.0215 -13066.8982 60.3840 -573.2208 -524.4231 33288.0366 7.9486 7.8102
ENERGY: 45000 0.0000 0.7837 0.0000 0.0000 -16244.8624 2755.0932 0.0000 0.0000 418.7579 -13070.2276 61.7520 -13488.9855 -13068.6352 60.2104 -212.5367 -154.8571 32978.3801 4.4973 4.4387
ENERGY: 50000 0.0000 0.7526 0.0000 0.0000 -16388.6419 2872.6472 0.0000 0.0000 405.5086 -13109.7336 59.7982 -13515.2421 -13108.7093 59.8951 437.0149 505.6277 32926.2596 4.8104 5.0128
TCL: Running 25000 steps at 90 kelvin.
TCL: Setting parameter langevinTemp to 90
TCL: Running for 25000 steps
ETITLE: TS BOND ANGLE DIHED IMPRP ELECT VDW BOUNDARY MISC KINETIC TOTAL TEMP POTENTIAL TOTAL3 TEMPAVG PRESSURE GPRESSURE VOLUME PRESSAVG GPRESSAVG
ENERGY: 50000 0.0000 0.7526 0.0000 0.0000 -16388.6419 2872.6472 0.0000 0.0000 405.3049 -13109.9372 59.7681 -13515.2421 -13109.0284 59.7681 455.3181 505.9140 32926.2596 455.3181 505.9140
ENERGY: 55000 0.0000 1.2913 0.0000 0.0000 -15971.1906 2667.0712 0.0000 0.0000 636.4871 -12666.3410 93.8593 -13302.8282 -12664.8722 87.6720 -259.9124 -170.2334 32981.5346 4.0698 3.7966
ENERGY: 60000 0.0000 1.3856 0.0000 0.0000 -15935.9639 2626.6276 0.0000 0.0000 600.7379 -12707.2127 88.5876 -13307.9506 -12706.2659 90.7026 -620.9017 -561.8802 33157.9102 0.1129 0.1506
ENERGY: 65000 0.0000 1.9588 0.0000 0.0000 -16026.6237 2679.0003 0.0000 0.0000 601.9489 -12743.7157 88.7661 -13345.6646 -12742.3323 90.3367 -325.6988 -282.6161 33032.2761 5.7083 6.0774
ENERGY: 70000 0.0000 0.4300 0.0000 0.0000 -15927.6199 2565.1197 0.0000 0.0000 634.6640 -12727.4062 93.5905 -13362.0702 -12725.3655 90.7021 -1164.9555 -1095.5023 33119.9701 3.3406 3.0431
ENERGY: 75000 0.0000 0.3305 0.0000 0.0000 -16273.3130 2905.6824 0.0000 0.0000 586.7391 -12780.5610 86.5232 -13367.3001 -12779.3422 90.1435 1297.5628 1365.9866 32635.9595 -2.0298 -2.1751
TCL: Running 25000 steps at 120 kelvin.
TCL: Setting parameter langevinTemp to 120
TCL: Running for 25000 steps
ETITLE: TS BOND ANGLE DIHED IMPRP ELECT VDW BOUNDARY MISC KINETIC TOTAL TEMP POTENTIAL TOTAL3 TEMPAVG PRESSURE GPRESSURE VOLUME PRESSAVG GPRESSAVG
ENERGY: 75000 0.0000 0.3305 0.0000 0.0000 -16273.3130 2905.6824 0.0000 0.0000 586.4335 -12780.8666 86.4782 -13367.3001 -12779.7310 86.4782 1307.0995 1365.8988 32635.9595 1307.0995 1365.8988
ENERGY: 80000 0.0000 1.8474 0.0000 0.0000 -15672.5006 2527.4115 0.0000 0.0000 814.0045 -12329.2372 120.0368 -13143.2418 -12327.6530 117.0721 -708.6105 -664.7311 33040.1663 2.5927 2.5612
ENERGY: 85000 0.0000 0.7654 0.0000 0.0000 -15839.6128 2659.6903 0.0000 0.0000 820.7451 -12358.4120 121.0308 -13179.1571 -12356.5412 119.6112 55.9454 106.8504 32992.9878 7.2051 7.5488
ENERGY: 90000 0.0000 0.8587 0.0000 0.0000 -15743.1054 2556.1756 0.0000 0.0000 829.5245 -12356.5466 122.3255 -13186.0711 -12353.5573 120.4055 -633.8881 -589.1129 33049.0360 5.2174 5.1296
ENERGY: 95000 0.0000 0.0866 0.0000 0.0000 -15937.2245 2742.4837 0.0000 0.0000 838.7181 -12355.9361 123.6812 -13194.6541 -12354.2055 120.9761 820.7882 860.8980 32681.8336 2.7545 3.7214
ENERGY: 100000 0.0000 0.3224 0.0000 0.0000 -15928.7751 2698.1133 0.0000 0.0000 813.2040 -12417.1354 119.9188 -13230.3394 -12414.7500 119.9775 413.3603 451.2173 32655.4292 -4.3285 -3.4076
TCL: Running 25000 steps at 150 kelvin.
TCL: Setting parameter langevinTemp to 150
TCL: Running for 25000 steps
ETITLE: TS BOND ANGLE DIHED IMPRP ELECT VDW BOUNDARY MISC KINETIC TOTAL TEMP POTENTIAL TOTAL3 TEMPAVG PRESSURE GPRESSURE VOLUME PRESSAVG GPRESSAVG
ENERGY: 100000 0.0000 0.3224 0.0000 0.0000 -15928.7751 2698.1133 0.0000 0.0000 812.8048 -12417.5346 119.8599 -13230.3394 -12416.2139 119.8599 396.6941 451.2073 32655.4292 396.6941 451.2073
ENERGY: 105000 0.0000 2.4909 0.0000 0.0000 -15556.2230 2595.3810 0.0000 0.0000 1023.4549 -11934.8962 150.9234 -12958.3512 -11932.1828 146.2099 332.1939 389.2675 33141.0049 -1.1152 -1.5928
ENERGY: 110000 0.0000 1.9361 0.0000 0.0000 -15581.2303 2627.2696 0.0000 0.0000 1046.2554 -11905.7692 154.2856 -12952.0246 -11904.5703 150.3703 409.3193 479.1097 33296.0885 4.1098 4.0182
ENERGY: 115000 0.0000 2.0584 0.0000 0.0000 -15608.4444 2643.1335 0.0000 0.0000 1020.5755 -11942.6771 150.4987 -12963.2526 -11941.4157 151.0533 608.1800 674.3841 33075.8880 11.1277 10.4751
ENERGY: 120000 0.0000 0.5965 0.0000 0.0000 -15583.8636 2605.3397 0.0000 0.0000 1001.9625 -11975.9649 147.7540 -12977.9274 -11973.2788 151.5429 137.6121 175.2292 33355.9388 3.3715 3.8628
ENERGY: 125000 0.0000 0.2964 0.0000 0.0000 -15607.9324 2602.9273 0.0000 0.0000 1040.8211 -11963.8875 153.4843 -13004.7086 -11962.4200 150.7046 131.1469 154.2597 33279.1453 2.2005 1.8639
TCL: Running 50000 steps at 180 kelvin.
TCL: Setting parameter langevinTemp to 180
TCL: Running for 50000 steps
ETITLE: TS BOND ANGLE DIHED IMPRP ELECT VDW BOUNDARY MISC KINETIC TOTAL TEMP POTENTIAL TOTAL3 TEMPAVG PRESSURE GPRESSURE VOLUME PRESSAVG GPRESSAVG
ENERGY: 125000 0.0000 0.2964 0.0000 0.0000 -15607.9324 2602.9273 0.0000 0.0000 1040.3200 -11964.3886 153.4104 -13004.7086 -11962.5254 153.4104 86.7335 154.6468 33279.1453 86.7335 154.6468
ENERGY: 135000 0.0000 0.9742 0.0000 0.0000 -15030.9044 2395.7857 0.0000 0.0000 1229.8700 -11404.2746 181.3623 -12634.1446 -11400.0479 179.6292 -352.6912 -264.5601 33628.7152 -1.7894 -1.1367
ENERGY: 145000 0.0000 0.5089 0.0000 0.0000 -15245.2332 2582.0292 0.0000 0.0000 1230.2928 -11432.4024 181.4246 -12662.6951 -11429.8499 179.6944 1377.2990 1406.7561 32792.5004 0.8469 1.2767
ENERGY: 155000 0.0000 1.5318 0.0000 0.0000 -15039.2599 2340.3403 0.0000 0.0000 1235.4659 -11461.9218 182.1875 -12697.3878 -11457.8730 179.9376 -667.6280 -614.4606 33297.1691 1.6133 0.7497
ENERGY: 165000 0.0000 0.1006 0.0000 0.0000 -15024.0590 2328.2019 0.0000 0.0000 1210.1698 -11485.5867 178.4572 -12695.7565 -11482.8280 179.8786 -1083.1912 -1004.0455 33795.1177 0.6730 0.2669
ENERGY: 175000 0.0000 0.7858 0.0000 0.0000 -15180.6234 2467.1387 0.0000 0.0000 1241.2213 -11471.4775 183.0362 -12712.6989 -11467.3279 179.7076 100.2434 110.3285 33363.2063 0.2388 -0.0285
TCL: Running 50000 steps at 210 kelvin.
TCL: Setting parameter langevinTemp to 210
TCL: Running for 50000 steps
ETITLE: TS BOND ANGLE DIHED IMPRP ELECT VDW BOUNDARY MISC KINETIC TOTAL TEMP POTENTIAL TOTAL3 TEMPAVG PRESSURE GPRESSURE VOLUME PRESSAVG GPRESSAVG
ENERGY: 175000 0.0000 0.7858 0.0000 0.0000 -15180.6234 2467.1387 0.0000 0.0000 1240.5874 -11472.1115 182.9427 -12712.6989 -11469.7787 182.9427 45.8155 110.4972 33363.2063 45.8155 110.4972
ENERGY: 185000 0.0000 0.9675 0.0000 0.0000 -14403.2453 2174.1074 0.0000 0.0000 1425.4826 -10802.6878 210.2082 -12228.1704 -10799.8037 208.9148 -228.9557 -148.4528 33173.3154 0.0083 -0.0819
ENERGY: 195000 0.0000 1.3869 0.0000 0.0000 -14494.1673 2322.7759 0.0000 0.0000 1423.9455 -10746.0589 209.9815 -12170.0045 -10741.1963 210.8921 913.7091 977.0863 33066.1649 5.9362 5.6869
ENERGY: 205000 0.0000 1.0079 0.0000 0.0000 -14292.9950 2116.9391 0.0000 0.0000 1413.0112 -10762.0367 208.3691 -12175.0480 -10759.7129 209.8032 -470.9994 -395.4382 33114.3862 -3.2772 -3.5085
ENERGY: 215000 0.0000 0.8444 0.0000 0.0000 -14499.2891 2222.2870 0.0000 0.0000 1398.5110 -10877.6467 206.2308 -12276.1577 -10874.7527 208.7056 -290.5054 -245.5023 33427.9447 3.5188 3.4124
ENERGY: 225000 0.0000 0.0316 0.0000 0.0000 -14566.7818 2318.8637 0.0000 0.0000 1440.4499 -10807.4366 212.4153 -12247.8865 -10803.4000 210.3390 878.9286 932.2307 32915.8855 2.1968 1.8887
TCL: Running 50000 steps at 240 kelvin.
TCL: Setting parameter langevinTemp to 240
TCL: Running for 50000 steps
ETITLE: TS BOND ANGLE DIHED IMPRP ELECT VDW BOUNDARY MISC KINETIC TOTAL TEMP POTENTIAL TOTAL3 TEMPAVG PRESSURE GPRESSURE VOLUME PRESSAVG GPRESSAVG
ENERGY: 225000 0.0000 0.0316 0.0000 0.0000 -14566.7818 2318.8637 0.0000 0.0000 1439.7681 -10808.1184 212.3148 -12247.8865 -10805.3647 212.3148 863.4187 932.2375 32915.8855 863.4187 932.2375
ENERGY: 235000 0.0000 3.6914 0.0000 0.0000 -13755.1072 2049.4494 0.0000 0.0000 1626.5030 -10075.4635 239.8516 -11701.9665 -10071.9289 238.9384 381.4545 442.5513 33459.3743 -1.2469 -0.6416
ENERGY: 245000 0.0000 2.1769 0.0000 0.0000 -13632.0619 1921.2505 0.0000 0.0000 1690.0737 -10018.5609 249.2260 -11708.6346 -10016.3996 242.1348 -469.5114 -397.8094 33533.7789 0.5706 0.0112
ENERGY: 255000 0.0000 0.4829 0.0000 0.0000 -13599.6784 1936.4541 0.0000 0.0000 1611.9938 -10050.7476 237.7120 -11662.7414 -10046.7524 240.5041 -332.3595 -296.1741 33580.3854 3.2953 3.1851
ENERGY: 265000 0.0000 3.9929 0.0000 0.0000 -13638.0535 1973.8739 0.0000 0.0000 1583.1732 -10077.0135 233.4620 -11660.1868 -10073.8665 238.6053 -106.9105 -20.6198 33540.5056 9.0472 8.4093
ENERGY: 275000 0.0000 1.3627 0.0000 0.0000 -13708.0855 1996.1740 0.0000 0.0000 1658.4363 -10052.1125 244.5606 -11710.5488 -10049.1600 239.8330 -133.6356 -28.3637 33436.6642 4.4990 5.2860
TCL: Running 50000 steps at 270 kelvin.
TCL: Setting parameter langevinTemp to 270
TCL: Running for 50000 steps
ETITLE: TS BOND ANGLE DIHED IMPRP ELECT VDW BOUNDARY MISC KINETIC TOTAL TEMP POTENTIAL TOTAL3 TEMPAVG PRESSURE GPRESSURE VOLUME PRESSAVG GPRESSAVG
ENERGY: 275000 0.0000 1.3627 0.0000 0.0000 -13708.0855 1996.1740 0.0000 0.0000 1657.6398 -10052.9089 244.4432 -11710.5488 -10049.4366 244.4432 -105.9788 -30.1813 33436.6642 -105.9788 -30.1813
ENERGY: 285000 0.0000 0.8904 0.0000 0.0000 -12970.2917 1774.8478 0.0000 0.0000 1860.6772 -9333.8763 274.3840 -11194.5535 -9329.0681 271.4781 -236.9137 -141.5964 34025.7383 -0.3381 0.2055
ENERGY: 295000 0.0000 3.3000 0.0000 0.0000 -12872.2821 1811.6860 0.0000 0.0000 1805.3685 -9251.9275 266.2279 -11057.2960 -9245.7629 272.7271 370.6320 441.4595 34030.7722 -0.6632 -0.6556
ENERGY: 305000 0.0000 0.9030 0.0000 0.0000 -12998.6873 1814.8987 0.0000 0.0000 1830.6255 -9352.2602 269.9524 -11182.8857 -9350.0234 269.4636 -35.7038 29.7913 34383.1928 1.0237 0.8761
ENERGY: 315000 0.0000 1.3807 0.0000 0.0000 -13157.2400 1988.6990 0.0000 0.0000 1818.0409 -9349.1194 268.0966 -11167.1603 -9344.8130 270.8888 1114.0164 1232.9452 34410.3690 0.5168 0.5808
ENERGY: 325000 0.0000 0.6150 0.0000 0.0000 -13131.8110 1892.5917 0.0000 0.0000 1801.0374 -9437.5669 265.5892 -11238.6043 -9435.3649 268.9334 564.3658 653.0892 33794.0880 3.7613 3.5379
TCL: Running 1000000 steps at 300 kelvin.
TCL: Setting parameter langevinTemp to 300
TCL: Running for 1000000 steps
ETITLE: TS BOND ANGLE DIHED IMPRP ELECT VDW BOUNDARY MISC KINETIC TOTAL TEMP POTENTIAL TOTAL3 TEMPAVG PRESSURE GPRESSURE VOLUME PRESSAVG GPRESSAVG
ENERGY: 325000 0.0000 0.6150 0.0000 0.0000 -13131.8110 1892.5917 0.0000 0.0000 1800.1481 -9438.4562 265.4581 -11238.6043 -9435.6772 265.4581 557.4763 653.1890 33794.0880 557.4763 653.1890
ENERGY: 525000 0.0000 1.8765 0.0000 0.0000 -12300.8766 1628.8948 0.0000 0.0000 2004.4265 -8665.6788 295.5819 -10670.1053 -8659.7593 299.8367 -107.1784 -1.4058 34879.8888 2.6682 2.4163
ENERGY: 725000 0.0000 0.6714 0.0000 0.0000 -12395.0589 1714.5466 0.0000 0.0000 2062.0103 -8617.8306 304.0735 -10679.8409 -8610.5330 302.1902 427.0343 506.0396 35037.7545 -2.9484 -2.7286
ENERGY: 925000 0.0000 1.6918 0.0000 0.0000 -12502.4260 1701.2482 0.0000 0.0000 2031.0113 -8768.4746 299.5022 -10799.4860 -8764.3958 298.5087 21.2920 129.6014 35144.7366 4.1197 3.5299
ENERGY: 1125000 0.0000 3.5211 0.0000 0.0000 -12443.5101 1656.7133 0.0000 0.0000 2073.0632 -8710.2125 305.7034 -10783.2757 -8705.9298 300.7701 -424.0982 -290.6364 35470.4278 4.5296 4.0538
ENERGY: 1325000 0.0000 1.5509 0.0000 0.0000 -12410.7687 1669.3139 0.0000 0.0000 1990.4478 -8749.4561 293.5206 -10739.9039 -8741.8085 299.1300 230.8571 363.9684 34658.4461 5.1700 4.9687
TCL: Exiting due to exit command.
