Info: SIMULATION PARAMETERS:
Info: TIMESTEP               2
Info: NUMBER OF STEPS        0
Info: STEPS PER CYCLE        10
Info: PERIODIC CELL BASIS 1  40.176 0 0
Info: PERIODIC CELL BASIS 2  0 39.757 0
Info: PERIODIC CELL BASIS 3  0 0 42.04
Info: PERIODIC CELL CENTER   0 0 0
Info: WRAPPING WATERS AROUND PERIODIC BOUNDARIES ON OUTPUT.
Info: WRAPPING ALL CLUSTERS AROUND PERIODIC BOUNDARIES ON OUTPUT.
Info: FIRST LDB TIMESTEP     50
Info: LAST LDB TIMESTEP     -1
Info: HOM BACKGROUND SCALING 1
Info: PME BACKGROUND SCALING 1
Info: MIN ATOMS PER PATCH    40
Info: EMPTY PATCH LOAD       40 ATOMS
Info: INITIAL TEMPERATURE    300
Info: CENTER OF MASS MOVING INITIALLY? NO
Info: DIELECTRIC             1
Info: EXCLUDE                SCALED ONE-FOUR
Info: 1-4 ELECTROSTATICS SCALED BY 0.833333
Info: MODIFIED 1-4 VDW PARAMETERS WILL BE USED
Info: DCD FILENAME           mobley_7227357_min.dcd
Info: DCD FREQUENCY          5000
Info: DCD FIRST STEP         5000
Info: DCD FILE WILL CONTAIN UNIT CELL DATA
Info: XST FILENAME           mobley_7227357_min.xst
Info: XST FREQUENCY          5000
Info: NO VELOCITY DCD OUTPUT
Info: NO FORCE DCD OUTPUT
Info: OUTPUT FILENAME        mobley_7227357_min
Info: BINARY OUTPUT FILES WILL BE USED
Info: RESTART FILENAME       mobley_7227357_min.restart
Info: RESTART FREQUENCY      5000
Info: BINARY RESTART FILES WILL BE USED
Info: CUTOFF                 9
Info: PAIRLIST DISTANCE      11
Info: PAIRLIST SHRINK RATE   0.01
Info: PAIRLIST GROW RATE     0.01
Info: PAIRLIST TRIGGER       0.3
Info: PAIRLISTS PER CYCLE    2
Info: PAIRLISTS ENABLED
Info: MARGIN                 8
Info: HYDROGEN GROUP CUTOFF  2.5
Info: PATCH DIMENSION        21.5
Info: ENERGY OUTPUT STEPS    5000
Info: ENERGY EVALUATION STEPS    5000
Info: OUTPUT ENERGY PRECISION 4
Info: CROSSTERM ENERGY INCLUDED IN DIHEDRAL
Info: TIMING OUTPUT STEPS    50000
Info: PRESSURE OUTPUT STEPS  5000
Info: LANGEVIN DYNAMICS ACTIVE
Info: LANGEVIN TEMPERATURE   300
Info: LANGEVIN USING BBK INTEGRATOR
Info: LANGEVIN DAMPING COEFFICIENT IS 1 INVERSE PS
Info: LANGEVIN DYNAMICS APPLIED TO HYDROGENS
Info: LANGEVIN PISTON PRESSURE CONTROL ACTIVE
Info:        TARGET PRESSURE IS 1.01325 BAR
Info:     OSCILLATION PERIOD IS 50 FS
Info:             DECAY TIME IS 25 FS
Info:     PISTON TEMPERATURE IS 300 K
Info:       PRESSURE CONTROL IS GROUP-BASED
Info:    INITIAL STRAIN RATE IS 0 0 0
Info:       CELL FLUCTUATION IS ISOTROPIC
Info: PARTICLE MESH EWALD (PME) ACTIVE
Info: PME TOLERANCE               1e-06
Info: PME EWALD COEFFICIENT       0.348832
Info: PME INTERPOLATION ORDER     4
Info: PME GRID DIMENSIONS         44 40 44
Info: PME MAXIMUM GRID SPACING    1
Info: FULL ELECTROSTATIC EVALUATION FREQUENCY      2
Info: USING VERLET I (r-RESPA) MTS SCHEME.
Info: C1 SPLITTING OF LONG RANGE ELECTROSTATICS
Info: PLACING ATOMS IN PATCHES BY HYDROGEN GROUPS
Info: RIGID BONDS TO HYDROGEN : ALL
Info:         ERROR TOLERANCE : 1e-08
Info:          MAX ITERATIONS : 100
Info: RIGID WATER USING SETTLE ALGORITHM
Info: RANDOM NUMBER SEED     1741394760
Info: USE HYDROGEN BONDS?    NO
Info: Using AMBER format force field!
Info: AMBER PARM FILE        mobley_7227357.prmtop
Info: COORDINATE PDB         mobley_7227357.pdb
Info: Exclusions will be read from PARM file!
Info: SCNB (VDW SCALING)     2
Info: USING ARITHMETIC MEAN TO COMBINE L-J SIGMA PARAMETERS
Info: SUMMARY OF PARAMETERS:
Info: 7 BONDS
Info: 7 ANGLES
Info:   7 HARMONIC
Info:   0 COSINE-BASED
Info: 8 DIHEDRAL
Info: 0 IMPROPER
Info: 0 CROSSTERM
Info: 0 VDW
Info: 28 VDW_PAIRS
Info: 0 NBTHOLE_PAIRS
Info: STRUCTURE SUMMARY:
Info: 4902 ATOMS
Info: 4901 BONDS
Info: 31 ANGLES
Info: 39 DIHEDRALS
Info: 0 IMPROPERS
Info: 0 CROSSTERMS
Info: 4971 EXCLUSIONS
Info: 4896 RIGID BONDS
Info: 9810 DEGREES OF FREEDOM
Info: 1634 HYDROGEN GROUPS
Info: 4 ATOMS IN LARGEST HYDROGEN GROUP
Info: 1634 MIGRATION GROUPS
Info: 4 ATOMS IN LARGEST MIGRATION GROUP
Info: TOTAL MASS = 29418.2 amu
Info: TOTAL CHARGE = 0.000399984 e
Info: MASS DENSITY = 0.727499 g/cm^3
Info: ATOM DENSITY = 0.0730013 atoms/A^3
Info: ADDED 0 IMPLICIT EXCLUSIONS
Info: NONBONDED TABLE R-SQUARED SPACING: 0.0625
Info: NONBONDED TABLE SIZE: 705 POINTS
Info: REMOVING COM VELOCITY 0.0949329 -0.11837 -0.0781862
TCL: Minimizing for 2000 steps
ETITLE: TS BOND ANGLE DIHED IMPRP ELECT VDW BOUNDARY MISC KINETIC TOTAL TEMP POTENTIAL TOTAL3 TEMPAVG PRESSURE GPRESSURE VOLUME PRESSAVG GPRESSAVG
ENERGY: 0 0.0751 0.4400 0.0126 0.0000 -15408.2891 1765.3323 0.0000 0.0000 0.0000 -13642.4291 0.0000 -13642.4291 -13642.4291 0.0000 11387.7515 -16055.8382 67149.5348 11387.7515 -16055.8382
ENERGY: 400 2.1198 2.4066 0.1042 0.0000 -20691.9324 3051.1672 0.0000 0.0000 0.0000 -17636.1345 0.0000 -17636.1345 -17636.1345 0.0000 16225.3324 16071.1953 67149.5348 16225.3324 16071.1953
ENERGY: 800 0.6471 1.0536 0.0755 0.0000 -21687.5899 3513.9645 0.0000 0.0000 0.0000 -18171.8492 0.0000 -18171.8492 -18171.8492 0.0000 18390.5247 18168.4073 67149.5348 18390.5247 18168.4073
ENERGY: 1200 0.3969 0.4554 0.0759 0.0000 -22031.8066 3664.9986 0.0000 0.0000 0.0000 -18365.8798 0.0000 -18365.8798 -18365.8798 0.0000 19117.0452 18908.7379 67149.5348 19117.0452 18908.7379
ENERGY: 1600 0.3345 0.6659 0.1106 0.0000 -22200.0509 3728.3631 0.0000 0.0000 0.0000 -18470.5768 0.0000 -18470.5768 -18470.5768 0.0000 19473.4509 19256.0485 67149.5348 19473.4509 19256.0485
ENERGY: 2000 0.2543 0.4722 0.0683 0.0000 -22339.1159 3771.8258 0.0000 0.0000 0.0000 -18566.4953 0.0000 -18566.4953 -18566.4953 0.0000 19717.9712 19471.0479 67149.5348 19717.9712 19471.0479
TCL: Exiting due to exit command.
Info: NAMD 3.0.1 for Linux-x86_64-multicore
Info: Please visit http://www.ks.uiuc.edu/Research/namd/
Info: for updates, documentation, and support information.
Info: Please cite Phillips et al., J. Chem. Phys. 153:044130 (2020) doi:10.1063/5.0014475
Info: in all publications reporting results obtained with NAMD.
Info: Based on Charm++/Converse 80000 for multicore-linux-x86_64-gcc
Info: Built Mon Oct 14 11:11:06 CDT 2024 by dhardy on athine.ks.uiuc.edu
Info: 1 NAMD  3.0.1  Linux-x86_64-multicore  16    k011  z5358697
Info: Running on 16 processors, 1 nodes, 1 physical nodes.
Info: CPU topology information available.
Info: Charm++/Converse parallel runtime startup completed at 0.00940062 s
Info: 1043.45 MB of memory in use based on /proc/self/stat
Info: Configuration file is mobley_7227357_equil.namd
Info: Working in the current directory /srv/scratch/z5358697/prod_prep_9/7227357
TCL: Running 25000 steps at 30 kelvin.
TCL: Suspending until startup complete.
Info: SIMULATION PARAMETERS:
Info: TIMESTEP               2
Info: NUMBER OF STEPS        0
Info: STEPS PER CYCLE        10
Info: PERIODIC CELL BASIS 1  40.176 0 0
Info: PERIODIC CELL BASIS 2  0 39.757 0
Info: PERIODIC CELL BASIS 3  0 0 42.04
Info: PERIODIC CELL CENTER   0 0 0
Info: WRAPPING WATERS AROUND PERIODIC BOUNDARIES ON OUTPUT.
Info: WRAPPING ALL CLUSTERS AROUND PERIODIC BOUNDARIES ON OUTPUT.
Info: FIRST LDB TIMESTEP     50
Info: LAST LDB TIMESTEP     -1
Info: HOM BACKGROUND SCALING 1
Info: PME BACKGROUND SCALING 1
Info: MIN ATOMS PER PATCH    40
Info: EMPTY PATCH LOAD       40 ATOMS
Info: INITIAL TEMPERATURE    300
Info: CENTER OF MASS MOVING INITIALLY? NO
Info: DIELECTRIC             1
Info: EXCLUDE                SCALED ONE-FOUR
Info: 1-4 ELECTROSTATICS SCALED BY 0.833333
Info: MODIFIED 1-4 VDW PARAMETERS WILL BE USED
Info: DCD FILENAME           mobley_7227357_equil.dcd
Info: DCD FREQUENCY          5000
Info: DCD FIRST STEP         5000
Info: DCD FILE WILL CONTAIN UNIT CELL DATA
Info: XST FILENAME           mobley_7227357_equil.xst
Info: XST FREQUENCY          5000
Info: NO VELOCITY DCD OUTPUT
Info: NO FORCE DCD OUTPUT
Info: OUTPUT FILENAME        mobley_7227357_equil
Info: BINARY OUTPUT FILES WILL BE USED
Info: RESTART FILENAME       mobley_7227357_equil.restart
Info: RESTART FREQUENCY      5000
Info: BINARY RESTART FILES WILL BE USED
Info: CUTOFF                 9
Info: PAIRLIST DISTANCE      11
Info: PAIRLIST SHRINK RATE   0.01
Info: PAIRLIST GROW RATE     0.01
Info: PAIRLIST TRIGGER       0.3
Info: PAIRLISTS PER CYCLE    2
Info: PAIRLISTS ENABLED
Info: MARGIN                 8
Info: HYDROGEN GROUP CUTOFF  2.5
Info: PATCH DIMENSION        21.5
Info: ENERGY OUTPUT STEPS    5000
Info: ENERGY EVALUATION STEPS    5000
Info: OUTPUT ENERGY PRECISION 4
Info: CROSSTERM ENERGY INCLUDED IN DIHEDRAL
Info: TIMING OUTPUT STEPS    50000
Info: PRESSURE OUTPUT STEPS  5000
Info: LANGEVIN DYNAMICS ACTIVE
Info: LANGEVIN TEMPERATURE   30
Info: LANGEVIN USING BBK INTEGRATOR
Info: LANGEVIN DAMPING COEFFICIENT IS 1 INVERSE PS
Info: LANGEVIN DYNAMICS APPLIED TO HYDROGENS
Info: LANGEVIN PISTON PRESSURE CONTROL ACTIVE
Info:        TARGET PRESSURE IS 1.01325 BAR
Info:     OSCILLATION PERIOD IS 50 FS
Info:             DECAY TIME IS 25 FS
Info:     PISTON TEMPERATURE IS 300 K
Info:       PRESSURE CONTROL IS GROUP-BASED
Info:    INITIAL STRAIN RATE IS 0 0 0
Info:       CELL FLUCTUATION IS ISOTROPIC
Info: PARTICLE MESH EWALD (PME) ACTIVE
Info: PME TOLERANCE               1e-06
Info: PME EWALD COEFFICIENT       0.348832
Info: PME INTERPOLATION ORDER     4
Info: PME GRID DIMENSIONS         44 40 44
Info: PME MAXIMUM GRID SPACING    1
Info: FULL ELECTROSTATIC EVALUATION FREQUENCY      2
Info: USING VERLET I (r-RESPA) MTS SCHEME.
Info: C1 SPLITTING OF LONG RANGE ELECTROSTATICS
Info: PLACING ATOMS IN PATCHES BY HYDROGEN GROUPS
Info: RIGID BONDS TO HYDROGEN : ALL
Info:         ERROR TOLERANCE : 1e-08
Info:          MAX ITERATIONS : 100
Info: RIGID WATER USING SETTLE ALGORITHM
Info: RANDOM NUMBER SEED     1741394775
Info: USE HYDROGEN BONDS?    NO
Info: Using AMBER format force field!
Info: AMBER PARM FILE        mobley_7227357.prmtop
Info: COORDINATE PDB         mobley_7227357.pdb
Info: Exclusions will be read from PARM file!
Info: SCNB (VDW SCALING)     2
Info: USING ARITHMETIC MEAN TO COMBINE L-J SIGMA PARAMETERS
Info: BINARY COORDINATES     mobley_7227357_min.coor
Info: SUMMARY OF PARAMETERS:
Info: 7 BONDS
Info: 7 ANGLES
Info:   7 HARMONIC
Info:   0 COSINE-BASED
Info: 8 DIHEDRAL
Info: 0 IMPROPER
Info: 0 CROSSTERM
Info: 0 VDW
Info: 28 VDW_PAIRS
Info: 0 NBTHOLE_PAIRS
Info: STRUCTURE SUMMARY:
Info: 4902 ATOMS
Info: 4901 BONDS
Info: 31 ANGLES
Info: 39 DIHEDRALS
Info: 0 IMPROPERS
Info: 0 CROSSTERMS
Info: 4971 EXCLUSIONS
Info: 4896 RIGID BONDS
Info: 9810 DEGREES OF FREEDOM
Info: 1634 HYDROGEN GROUPS
Info: 4 ATOMS IN LARGEST HYDROGEN GROUP
Info: 1634 MIGRATION GROUPS
Info: 4 ATOMS IN LARGEST MIGRATION GROUP
Info: TOTAL MASS = 29418.2 amu
Info: TOTAL CHARGE = 0.000399984 e
Info: MASS DENSITY = 0.727499 g/cm^3
Info: ATOM DENSITY = 0.0730013 atoms/A^3
Info: ADDED 0 IMPLICIT EXCLUSIONS
Info: NONBONDED TABLE R-SQUARED SPACING: 0.0625
Info: NONBONDED TABLE SIZE: 705 POINTS
Info: REMOVING COM VELOCITY 0.125502 0.119236 -0.0341252
TCL: Running for 25000 steps
ETITLE: TS BOND ANGLE DIHED IMPRP ELECT VDW BOUNDARY MISC KINETIC TOTAL TEMP POTENTIAL TOTAL3 TEMPAVG PRESSURE GPRESSURE VOLUME PRESSAVG GPRESSAVG
ENERGY: 0 0.2543 0.4722 0.0683 0.0000 -22339.1159 3771.8258 0.0000 0.0000 2978.5499 -15587.9454 305.5809 -18566.4953 -15587.3338 305.5809 -137.8851 -105.3393 67149.5348 -137.8851 -105.3393
ENERGY: 5000 0.2031 1.0952 0.1748 0.0000 -23561.7069 4106.0006 0.0000 0.0000 297.0090 -19157.2242 30.4713 -19454.2332 -19156.4134 48.2446 122.0215 168.6185 47874.8820 -1.3708 -1.3786
ENERGY: 10000 0.0660 0.8724 0.3042 0.0000 -23647.7597 4159.6811 0.0000 0.0000 294.7818 -19192.0542 30.2428 -19486.8360 -19191.3304 30.2751 283.3199 334.5912 47885.1963 4.3510 4.2388
ENERGY: 15000 0.2998 0.8875 0.1913 0.0000 -23675.2193 4162.9869 0.0000 0.0000 294.8754 -19215.9783 30.2524 -19510.8537 -19215.5660 30.0832 205.7806 273.6835 47959.7289 0.3342 0.4185
ENERGY: 20000 0.0839 1.4038 0.3659 0.0000 -23584.8084 4062.9738 0.0000 0.0000 292.8718 -19227.1091 30.0469 -19519.9809 -19226.3310 30.0105 -298.9215 -244.0904 48053.2329 0.1239 0.1599
ENERGY: 25000 0.4500 1.0928 0.2430 0.0000 -23538.5356 4013.6907 0.0000 0.0000 290.7360 -19232.3231 29.8277 -19523.0591 -19231.6868 30.2171 -613.0398 -547.1148 48146.5447 4.2845 4.3144
TCL: Running 25000 steps at 60 kelvin.
TCL: Setting parameter langevinTemp to 60
TCL: Running for 25000 steps
ETITLE: TS BOND ANGLE DIHED IMPRP ELECT VDW BOUNDARY MISC KINETIC TOTAL TEMP POTENTIAL TOTAL3 TEMPAVG PRESSURE GPRESSURE VOLUME PRESSAVG GPRESSAVG
ENERGY: 25000 0.4500 1.0928 0.2430 0.0000 -23538.5356 4013.6907 0.0000 0.0000 290.5927 -19232.4664 29.8130 -19523.0591 -19231.9401 29.8130 -603.4796 -547.2643 48146.5447 -603.4796 -547.2643
ENERGY: 30000 0.9579 2.0637 0.4257 0.0000 -23119.9955 3867.2241 0.0000 0.0000 596.9119 -18652.4122 61.2395 -19249.3242 -18650.9841 56.8340 -709.0101 -659.0551 48529.6357 4.1946 4.4882
ENERGY: 35000 0.4434 1.6067 0.4985 0.0000 -23114.9685 3824.4557 0.0000 0.0000 593.4345 -18694.5297 60.8827 -19287.9642 -18693.1675 59.9987 -902.2743 -862.4510 48337.8001 6.6662 6.7524
ENERGY: 40000 0.3626 2.3690 0.4334 0.0000 -23354.6698 4059.3045 0.0000 0.0000 585.2098 -18706.9905 60.0389 -19292.2002 -18706.0178 60.3231 233.4094 303.4464 47942.9958 -1.5332 -1.5265
ENERGY: 45000 0.2997 1.6732 0.2319 0.0000 -23083.2069 3770.3562 0.0000 0.0000 579.1942 -18731.4518 59.4218 -19310.6460 -18729.8732 59.6318 -1253.3652 -1199.1603 48406.4471 3.1091 3.2578
ENERGY: 50000 0.1271 1.6279 0.2994 0.0000 -23343.5869 4004.2392 0.0000 0.0000 598.0144 -18739.2788 61.3526 -19337.2932 -18737.4507 60.0536 -54.5124 4.3558 47934.6264 4.0452 4.0039
TCL: Running 25000 steps at 90 kelvin.
TCL: Setting parameter langevinTemp to 90
TCL: Running for 25000 steps
ETITLE: TS BOND ANGLE DIHED IMPRP ELECT VDW BOUNDARY MISC KINETIC TOTAL TEMP POTENTIAL TOTAL3 TEMPAVG PRESSURE GPRESSURE VOLUME PRESSAVG GPRESSAVG
ENERGY: 50000 0.1271 1.6279 0.2994 0.0000 -23343.5869 4004.2392 0.0000 0.0000 597.7290 -18739.5642 61.3233 -19337.2932 -18738.1022 61.3233 -40.3167 4.3631 47934.6264 -40.3167 4.3631
ENERGY: 55000 0.7154 3.4284 0.5373 0.0000 -22897.6366 3843.8662 0.0000 0.0000 871.3430 -18177.7463 89.3944 -19049.0893 -18175.3640 87.3646 -254.6290 -243.5710 48258.6825 2.0929 2.0477
ENERGY: 60000 0.4719 3.4197 0.3247 0.0000 -22869.8549 3817.0644 0.0000 0.0000 908.3780 -18140.1963 93.1940 -19048.5743 -18138.2188 90.6944 -429.1829 -348.9430 48238.1300 3.1953 2.8673
ENERGY: 65000 0.0876 2.5504 0.2611 0.0000 -22802.1566 3692.5996 0.0000 0.0000 865.3662 -18241.2917 88.7813 -19106.6579 -18238.5508 90.7195 -1171.7041 -1115.8714 48280.9687 -0.4780 -0.4003
ENERGY: 70000 0.2011 1.9182 0.1187 0.0000 -23027.0982 3897.2558 0.0000 0.0000 869.3138 -18258.2906 89.1863 -19127.6044 -18255.2861 89.6014 -124.8322 -91.5931 47944.2895 -1.5836 -1.7015
ENERGY: 75000 0.7541 2.9881 0.4000 0.0000 -23120.2136 3983.5535 0.0000 0.0000 865.6057 -18266.9121 88.8058 -19132.5178 -18264.8084 89.8415 269.5262 307.0146 47872.9611 2.1421 2.1297
TCL: Running 25000 steps at 120 kelvin.
TCL: Setting parameter langevinTemp to 120
TCL: Running for 25000 steps
ETITLE: TS BOND ANGLE DIHED IMPRP ELECT VDW BOUNDARY MISC KINETIC TOTAL TEMP POTENTIAL TOTAL3 TEMPAVG PRESSURE GPRESSURE VOLUME PRESSAVG GPRESSAVG
ENERGY: 75000 0.7541 2.9881 0.4000 0.0000 -23120.2136 3983.5535 0.0000 0.0000 865.1622 -18267.3556 88.7603 -19132.5178 -18266.0059 88.7603 258.5463 306.6120 47872.9611 258.5463 306.6120
ENERGY: 80000 0.3850 2.7024 0.7136 0.0000 -22669.5845 3863.1892 0.0000 0.0000 1177.7823 -17624.8119 120.8332 -18802.5943 -17622.7457 117.6440 421.2975 459.6251 48064.1871 2.7161 2.8682
ENERGY: 85000 0.3016 3.9085 0.6671 0.0000 -22795.6019 3933.2177 0.0000 0.0000 1178.1396 -17679.3674 120.8699 -18857.5070 -17675.5529 120.4079 605.9428 688.2608 48021.3636 4.0505 3.5934
ENERGY: 90000 0.7243 3.5394 0.6947 0.0000 -22605.5743 3721.4870 0.0000 0.0000 1170.4731 -17708.6558 120.0834 -18879.1289 -17705.5797 120.1582 -594.2034 -548.5934 48480.2211 5.6508 5.8309
ENERGY: 95000 0.8271 3.0626 0.2324 0.0000 -22877.5539 3974.6414 0.0000 0.0000 1189.3995 -17709.3907 122.0251 -18898.7903 -17707.3670 120.4014 756.5911 762.9936 48046.4103 7.9610 8.0872
ENERGY: 100000 0.8526 3.1022 0.4576 0.0000 -22821.9626 3898.1338 0.0000 0.0000 1175.0163 -17744.4001 120.5495 -18919.4164 -17741.3921 120.4568 255.2133 272.2148 48185.8190 6.9107 6.9417
TCL: Running 25000 steps at 150 kelvin.
TCL: Setting parameter langevinTemp to 150
TCL: Running for 25000 steps
ETITLE: TS BOND ANGLE DIHED IMPRP ELECT VDW BOUNDARY MISC KINETIC TOTAL TEMP POTENTIAL TOTAL3 TEMPAVG PRESSURE GPRESSURE VOLUME PRESSAVG GPRESSAVG
ENERGY: 100000 0.8526 3.1022 0.4576 0.0000 -22821.9626 3898.1338 0.0000 0.0000 1174.4122 -17745.0042 120.4875 -18919.4164 -17742.6025 120.4875 226.5335 271.6386 48185.8190 226.5335 271.6386
ENERGY: 105000 1.0465 4.3832 0.3676 0.0000 -22233.5791 3711.9180 0.0000 0.0000 1492.6479 -17023.2159 153.1365 -18515.8638 -17019.4280 146.6201 211.1107 231.2547 48534.4916 6.3565 6.8154
ENERGY: 110000 1.2561 3.4437 0.5838 0.0000 -22326.2847 3761.8442 0.0000 0.0000 1465.6090 -17093.5477 150.3625 -18559.1567 -17090.3948 150.4342 462.9968 485.1747 48150.9651 3.1993 3.1501
ENERGY: 115000 1.8453 3.0756 0.5621 0.0000 -22036.9390 3455.8132 0.0000 0.0000 1503.7935 -17071.8492 154.2800 -18575.6427 -17067.6913 150.3085 -1249.2906 -1187.4419 48705.8161 6.2896 6.3646
ENERGY: 120000 0.7745 5.9991 0.6124 0.0000 -22207.4991 3621.8463 0.0000 0.0000 1450.3945 -17127.8722 148.8016 -18578.2667 -17125.2466 150.7757 -357.2865 -337.5784 48478.3780 1.4704 1.5288
ENERGY: 125000 0.9953 4.3483 0.4222 0.0000 -22132.4112 3547.0716 0.0000 0.0000 1451.7135 -17127.8603 148.9369 -18579.5738 -17124.7145 149.8515 -754.7550 -729.5440 48533.1928 1.3581 1.0563
TCL: Running 50000 steps at 180 kelvin.
TCL: Setting parameter langevinTemp to 180
TCL: Running for 50000 steps
ETITLE: TS BOND ANGLE DIHED IMPRP ELECT VDW BOUNDARY MISC KINETIC TOTAL TEMP POTENTIAL TOTAL3 TEMPAVG PRESSURE GPRESSURE VOLUME PRESSAVG GPRESSAVG
ENERGY: 125000 0.9953 4.3483 0.4222 0.0000 -22132.4112 3547.0716 0.0000 0.0000 1450.9807 -17128.5931 148.8617 -18579.5738 -17125.6112 148.8617 -792.6917 -730.3115 48533.1928 -792.6917 -730.3115
ENERGY: 135000 1.3136 6.9867 0.4216 0.0000 -21851.4688 3653.1196 0.0000 0.0000 1782.2898 -16407.3375 182.8520 -18189.6273 -16404.8060 180.6049 831.0800 859.6180 47906.3334 3.3071 2.8351
ENERGY: 145000 0.9942 3.9665 1.8761 0.0000 -21679.9340 3454.4277 0.0000 0.0000 1739.6363 -16479.0331 178.4760 -18218.6694 -16474.8755 180.1175 -301.2404 -233.3371 48184.1327 3.2689 2.6538
ENERGY: 155000 2.1291 3.4576 0.8829 0.0000 -21610.5847 3435.3524 0.0000 0.0000 1773.8861 -16394.8765 181.9898 -18168.7627 -16390.3546 181.0778 -415.7687 -383.2231 48337.3456 3.1674 3.3884
ENERGY: 165000 0.9218 6.4791 1.0319 0.0000 -21637.8995 3413.0639 0.0000 0.0000 1777.6354 -16438.7676 182.3745 -18216.4029 -16432.7438 179.8786 -535.8466 -494.2023 48293.4254 5.2802 5.2849
ENERGY: 175000 0.0721 6.0964 1.5731 0.0000 -21921.1596 3679.9024 0.0000 0.0000 1763.7232 -16469.7924 180.9472 -18233.5156 -16466.1574 180.5523 741.4857 812.5217 48026.8030 -0.5680 -0.5037
TCL: Running 50000 steps at 210 kelvin.
TCL: Setting parameter langevinTemp to 210
TCL: Running for 50000 steps
ETITLE: TS BOND ANGLE DIHED IMPRP ELECT VDW BOUNDARY MISC KINETIC TOTAL TEMP POTENTIAL TOTAL3 TEMPAVG PRESSURE GPRESSURE VOLUME PRESSAVG GPRESSAVG
ENERGY: 175000 0.0721 6.0964 1.5731 0.0000 -21921.1596 3679.9024 0.0000 0.0000 1762.8397 -16470.6759 180.8565 -18233.5156 -16467.3269 180.8565 752.8861 810.9926 48026.8030 752.8861 810.9926
ENERGY: 185000 1.5659 8.2164 1.4411 0.0000 -20713.8936 3202.7679 0.0000 0.0000 2080.1685 -15419.7338 213.4125 -17499.9023 -15414.8401 209.8021 -76.0256 -15.8964 48687.5139 3.2098 3.3439
ENERGY: 195000 0.9592 5.3321 1.0212 0.0000 -20756.8070 3224.6284 0.0000 0.0000 2034.4253 -15490.4408 208.7196 -17524.8661 -15486.0641 211.0760 228.4563 288.2113 47935.6623 -0.2898 0.5553
ENERGY: 205000 0.2502 4.8613 0.6714 0.0000 -20669.1481 3155.7299 0.0000 0.0000 2053.9491 -15453.6863 210.7226 -17507.6353 -15447.4293 210.4103 -267.5375 -211.9526 48385.3223 1.2608 0.6430
ENERGY: 215000 0.4497 3.4302 0.3990 0.0000 -20649.5925 3155.3606 0.0000 0.0000 2050.8695 -15439.0836 210.4066 -17489.9531 -15434.5635 210.2230 -102.2546 -19.0894 47932.2128 0.4953 0.5042
ENERGY: 225000 0.3047 9.1370 0.6714 0.0000 -20800.7797 3222.9897 0.0000 0.0000 2053.9499 -15513.7270 210.7226 -17567.6769 -15509.0639 209.3556 322.9781 342.6439 47409.5678 1.6692 1.9643
TCL: Running 50000 steps at 240 kelvin.
TCL: Setting parameter langevinTemp to 240
TCL: Running for 50000 steps
ETITLE: TS BOND ANGLE DIHED IMPRP ELECT VDW BOUNDARY MISC KINETIC TOTAL TEMP POTENTIAL TOTAL3 TEMPAVG PRESSURE GPRESSURE VOLUME PRESSAVG GPRESSAVG
ENERGY: 225000 0.3047 9.1370 0.6714 0.0000 -20800.7797 3222.9897 0.0000 0.0000 2052.9174 -15514.7594 210.6167 -17567.6769 -15511.5821 210.6167 269.4889 342.8103 47409.5678 269.4889 342.8103
ENERGY: 235000 2.4659 4.8702 0.7699 0.0000 -19496.3079 2743.5803 0.0000 0.0000 2348.6671 -14395.9545 240.9588 -16744.6216 -14389.7161 239.2301 -463.3380 -375.3612 48257.0209 4.6918 4.4494
ENERGY: 245000 2.6310 5.3914 0.5651 0.0000 -19596.9495 2773.6762 0.0000 0.0000 2353.6018 -14461.0840 241.4651 -16814.6858 -14452.8900 239.5146 -672.5031 -564.7109 48398.2297 -0.1011 -0.2207
ENERGY: 255000 1.5376 7.8620 0.7458 0.0000 -19632.7688 2836.7745 0.0000 0.0000 2353.6516 -14432.1972 241.4702 -16785.8489 -14426.2704 240.3175 -71.8953 8.1380 47855.4333 3.7380 4.0452
ENERGY: 265000 1.2292 6.5248 1.2793 0.0000 -19434.4761 2722.7239 0.0000 0.0000 2338.7873 -14363.9316 239.9452 -16702.7189 -14358.8404 241.6499 -684.8377 -568.0934 48286.8803 3.6327 4.4073
ENERGY: 275000 1.5155 9.1314 1.9339 0.0000 -19683.6340 2873.1960 0.0000 0.0000 2287.0978 -14510.7595 234.6422 -16797.8573 -14506.8951 237.7263 -38.0042 61.8446 48342.0164 1.6162 2.0667
TCL: Running 50000 steps at 270 kelvin.
TCL: Setting parameter langevinTemp to 270
TCL: Running for 50000 steps
ETITLE: TS BOND ANGLE DIHED IMPRP ELECT VDW BOUNDARY MISC KINETIC TOTAL TEMP POTENTIAL TOTAL3 TEMPAVG PRESSURE GPRESSURE VOLUME PRESSAVG GPRESSAVG
ENERGY: 275000 1.5155 9.1314 1.9339 0.0000 -19683.6340 2873.1960 0.0000 0.0000 2285.9388 -14511.9185 234.5233 -16797.8573 -14507.9350 234.5233 -24.5557 61.3492 48342.0164 -24.5557 61.3492
ENERGY: 285000 1.4322 6.3445 2.5093 0.0000 -18628.2776 2578.2473 0.0000 0.0000 2659.1497 -13380.5946 272.8124 -16039.7443 -13374.6557 270.1788 -167.5484 -78.2198 49269.8525 4.1811 3.8420
ENERGY: 295000 0.5984 5.3798 2.2074 0.0000 -18644.7653 2597.7233 0.0000 0.0000 2600.1118 -13438.7446 266.7555 -16038.8564 -13436.8349 269.9603 192.1141 264.4434 48790.8714 1.8799 1.3562
ENERGY: 305000 1.9414 5.7931 1.1504 0.0000 -18756.2364 2652.1233 0.0000 0.0000 2630.8241 -13464.4042 269.9064 -16095.2283 -13460.9157 268.6078 176.7407 286.5875 48877.0259 3.4223 3.3932
ENERGY: 315000 1.0609 10.5956 1.1183 0.0000 -18681.8605 2603.9458 0.0000 0.0000 2616.5735 -13448.5664 268.4444 -16065.1399 -13445.7191 268.7087 -70.5683 10.2207 49042.5372 3.9291 3.2954
ENERGY: 325000 0.8797 6.9399 1.1713 0.0000 -18680.4001 2573.4560 0.0000 0.0000 2606.5297 -13491.4235 267.4140 -16097.9533 -13486.4897 267.6633 -395.4008 -305.4738 49537.2647 5.4427 5.7018
TCL: Running 1000000 steps at 300 kelvin.
TCL: Setting parameter langevinTemp to 300
TCL: Running for 1000000 steps
ETITLE: TS BOND ANGLE DIHED IMPRP ELECT VDW BOUNDARY MISC KINETIC TOTAL TEMP POTENTIAL TOTAL3 TEMPAVG PRESSURE GPRESSURE VOLUME PRESSAVG GPRESSAVG
ENERGY: 325000 0.8797 6.9399 1.1713 0.0000 -18680.4001 2573.4560 0.0000 0.0000 2605.1860 -13492.7672 267.2761 -16097.9533 -13489.1705 267.2761 -387.2665 -305.5554 49537.2647 -387.2665 -305.5554
ENERGY: 525000 2.3155 4.7851 0.8591 0.0000 -17694.5538 2328.9350 0.0000 0.0000 2915.9563 -12441.7028 299.1592 -15357.6591 -12439.1825 300.2370 -362.0108 -306.4328 51024.9254 5.5658 5.7881
ENERGY: 725000 1.9442 7.4002 1.2844 0.0000 -17800.1063 2321.2615 0.0000 0.0000 2982.8616 -12485.3544 306.0233 -15468.2160 -12477.5552 302.0596 -544.0206 -454.5921 50610.6192 5.0709 4.5896
ENERGY: 925000 2.3060 12.2271 1.9802 0.0000 -17727.9162 2369.9742 0.0000 0.0000 2984.0643 -12357.3645 306.1467 -15341.4288 -12352.5167 299.4605 59.5985 150.5751 50301.4915 1.1972 1.5754
ENERGY: 1125000 0.5427 5.1897 1.6127 0.0000 -17727.0491 2314.0035 0.0000 0.0000 2993.7330 -12411.9675 307.1386 -15405.7006 -12408.9960 299.9003 -401.6570 -332.8220 50717.9945 6.1475 6.1646
ENERGY: 1325000 2.0001 8.2243 0.9075 0.0000 -17691.3241 2357.9508 0.0000 0.0000 2971.8331 -12350.4084 304.8918 -15322.2415 -12340.2121 302.4632 -62.6669 24.9771 50898.8765 0.3752 -0.4004
TCL: Exiting due to exit command.
