Info: SIMULATION PARAMETERS:
Info: TIMESTEP               2
Info: NUMBER OF STEPS        0
Info: STEPS PER CYCLE        10
Info: PERIODIC CELL BASIS 1  31.4796 0 0
Info: PERIODIC CELL BASIS 2  0 31.0595 0
Info: PERIODIC CELL BASIS 3  0 0 30.6587
Info: PERIODIC CELL CENTER   0 0 0
Info: WRAPPING WATERS AROUND PERIODIC BOUNDARIES ON OUTPUT.
Info: WRAPPING ALL CLUSTERS AROUND PERIODIC BOUNDARIES ON OUTPUT.
Info: FIRST LDB TIMESTEP     50
Info: LAST LDB TIMESTEP     -1
Info: HOM BACKGROUND SCALING 1
Info: PME BACKGROUND SCALING 1
Info: MIN ATOMS PER PATCH    40
Info: EMPTY PATCH LOAD       40 ATOMS
Info: VELOCITY FILE          mobley_7769613_equil.vel
Info: CENTER OF MASS MOVING INITIALLY? NO
Info: DIELECTRIC             1
Info: EXCLUDE                SCALED ONE-FOUR
Info: 1-4 ELECTROSTATICS SCALED BY 0.833333
Info: MODIFIED 1-4 VDW PARAMETERS WILL BE USED
Info: DCD FILENAME           mobley_7769613_prod.dcd
Info: DCD FREQUENCY          100000
Info: DCD FIRST STEP         100000
Info: DCD FILE WILL CONTAIN UNIT CELL DATA
Info: XST FILENAME           mobley_7769613_prod.xst
Info: XST FREQUENCY          100000
Info: NO VELOCITY DCD OUTPUT
Info: NO FORCE DCD OUTPUT
Info: OUTPUT FILENAME        mobley_7769613_prod
Info: BINARY OUTPUT FILES WILL BE USED
Info: RESTART FILENAME       mobley_7769613_prod.restart
Info: RESTART FREQUENCY      100000
Info: BINARY RESTART FILES WILL BE USED
Info: CUTOFF                 9
Info: PAIRLIST DISTANCE      11
Info: PAIRLIST SHRINK RATE   0.01
Info: PAIRLIST GROW RATE     0.01
Info: PAIRLIST TRIGGER       0.3
Info: PAIRLISTS PER CYCLE    2
Info: PAIRLISTS ENABLED
Info: MARGIN                 2
Info: HYDROGEN GROUP CUTOFF  2.5
Info: PATCH DIMENSION        15.5
Info: ENERGY OUTPUT STEPS    100000
Info: ENERGY EVALUATION STEPS    100000
Info: OUTPUT ENERGY PRECISION 4
Info: CROSSTERM ENERGY INCLUDED IN DIHEDRAL
Info: TIMING OUTPUT STEPS    1000000
Info: PRESSURE OUTPUT STEPS  100000
Info: FIXED ATOMS ACTIVE
Info: ALCHEMICAL FEP ON
Info: FEP CURRENT LAMBDA VALUE     1
Info: FEP COMPARISON LAMBDA VALUE  0.95
Info: FEP INTRA-ALCHEMICAL NON-BONDED INTERACTIONS WILL BE RETAINED
Info: FEP INTRA-ALCHEMICAL BONDED INTERACTIONS WILL BE RETAINED
Info: FEP VDW SHIFTING COEFFICIENT 5
Info: FEP ELEC. ACTIVE FOR ANNIHILATED PARTICLES BETWEEN LAMBDA = 0 AND LAMBDA = 0.5
Info: FEP ELEC. ACTIVE FOR EXNIHILATED PARTICLES BETWEEN LAMBDA = 0.5 AND LAMBDA = 1
Info: FEP VDW ACTIVE FOR ANNIHILATED PARTICLES BETWEEN LAMBDA = 0 AND LAMBDA = 1
Info: FEP VDW ACTIVE FOR EXNIHILATED PARTICLES BETWEEN LAMBDA = 0 AND LAMBDA = 1
Info: FEP BOND ACTIVE FOR ANNIHILATED PARTICLES BETWEEN LAMBDA = 1 AND LAMBDA = 1
Info: FEP BOND ACTIVE FOR EXNIHILATED PARTICLES BETWEEN LAMBDA = 0 AND LAMBDA = 0
Info: LANGEVIN DYNAMICS ACTIVE
Info: LANGEVIN TEMPERATURE   300
Info: LANGEVIN USING BBK INTEGRATOR
Info: LANGEVIN DAMPING COEFFICIENT IS 1 INVERSE PS
Info: LANGEVIN DYNAMICS APPLIED TO HYDROGENS
Info: LANGEVIN PISTON PRESSURE CONTROL ACTIVE
Info:        TARGET PRESSURE IS 1.01325 BAR
Info:     OSCILLATION PERIOD IS 50 FS
Info:             DECAY TIME IS 25 FS
Info:     PISTON TEMPERATURE IS 300 K
Info:       PRESSURE CONTROL IS GROUP-BASED
Info:    INITIAL STRAIN RATE IS 5.47726e-05 5.47726e-05 5.47726e-05
Info:       CELL FLUCTUATION IS ISOTROPIC
Info: PARTICLE MESH EWALD (PME) ACTIVE
Info: PME TOLERANCE               1e-06
Info: PME EWALD COEFFICIENT       0.348832
Info: PME INTERPOLATION ORDER     4
Info: PME GRID DIMENSIONS         32 32 32
Info: PME MAXIMUM GRID SPACING    1
Info: FULL ELECTROSTATIC EVALUATION FREQUENCY      2
Info: USING VERLET I (r-RESPA) MTS SCHEME.
Info: C1 SPLITTING OF LONG RANGE ELECTROSTATICS
Info: PLACING ATOMS IN PATCHES BY HYDROGEN GROUPS
Info: RIGID BONDS TO HYDROGEN : ALL
Info:         ERROR TOLERANCE : 1e-08
Info:          MAX ITERATIONS : 100
Info: RIGID WATER USING SETTLE ALGORITHM
Info: RANDOM NUMBER SEED     1742281153
Info: USE HYDROGEN BONDS?    NO
Info: Using AMBER format force field!
Info: AMBER PARM FILE        mobley_7769613.prmtop
Info: COORDINATE PDB         mobley_7769613.pdb
Info: Exclusions will be read from PARM file!
Info: SCNB (VDW SCALING)     2
Info: USING ARITHMETIC MEAN TO COMBINE L-J SIGMA PARAMETERS
Info: BINARY COORDINATES     mobley_7769613_equil.coor
Info: MIXED PRECISION AVX-512 TILES OPTIMIZATIONS: DISABLED
Info: SUMMARY OF PARAMETERS:
Info: 5 BONDS
Info: 4 ANGLES
Info:   4 HARMONIC
Info:   0 COSINE-BASED
Info: 2 DIHEDRAL
Info: 0 IMPROPER
Info: 0 CROSSTERM
Info: 0 VDW
Info: 15 VDW_PAIRS
Info: 0 NBTHOLE_PAIRS
Info: To read alchdata from file: mobley_7769613.pdb
Info: To read alchflag data from column: 5
Info: STRUCTURE SUMMARY:
Info: 2915 ATOMS
Info: 2914 BONDS
Info: 24 ANGLES
Info: 27 DIHEDRALS
Info: 0 IMPROPERS
Info: 0 CROSSTERMS
Info: 2965 EXCLUSIONS
Info: 14 FIXED ATOMS
Info: 2910 RIGID BONDS
Info: 9 RIGID BONDS BETWEEN FIXED ATOMS
Info: ALCH: 0 ATOMS TO DISAPPEAR IN FINAL STATE
Info: ALCH: 14 ATOMS TO APPEAR IN FINAL STATE
Info: 5802 DEGREES OF FREEDOM
Info: 972 HYDROGEN GROUPS
Info: 4 ATOMS IN LARGEST HYDROGEN GROUP
Info: 972 MIGRATION GROUPS
Info: 4 ATOMS IN LARGEST MIGRATION GROUP
Info: 5 HYDROGEN GROUPS WITH ALL ATOMS FIXED
Info: TOTAL MASS = 17558.5 amu
Info: TOTAL CHARGE = 0.00040001 e
Info: MASS DENSITY = 0.972677 g/cm^3
Info: ATOM DENSITY = 0.0972436 atoms/A^3
Info: ADDED 0 IMPLICIT EXCLUSIONS
Info: NONBONDED TABLE R-SQUARED SPACING: 0.0625
Info: NONBONDED TABLE SIZE: 705 POINTS
Info: REMOVING COM VELOCITY 0.0383497 0.296317 0.209092
TCL: Running for 1500000 steps
ETITLE: TS BOND ANGLE DIHED IMPRP ELECT VDW BOUNDARY MISC KINETIC TOTAL TEMP POTENTIAL TOTAL3 TEMPAVG PRESSURE GPRESSURE VOLUME PRESSAVG GPRESSAVG
ENERGY: 0 0.0000 0.0000 0.0000 0.0000 -10533.2135 1378.8045 0.0000 0.0000 1722.0020 -7432.4070 298.7076 -9154.4090 -7428.9138 298.7076 -292.7717 -215.6002 29976.2711 -292.7717 -215.6002
ENERGY: 300000 0.0000 0.0000 0.0000 0.0000 -10487.9043 1411.1786 0.0000 0.0000 1744.1665 -7332.5593 302.5524 -9076.7258 -7326.4415 300.6335 -174.3606 -91.3278 30777.3896 4.4014 4.4101
ENERGY: 600000 0.0000 0.0000 0.0000 0.0000 -10502.9745 1389.8979 0.0000 0.0000 1704.2706 -7408.8059 295.6319 -9113.0766 -7404.9610 300.4740 -292.6494 -219.3483 30243.8184 1.9298 1.9997
ENERGY: 900000 0.0000 0.0000 0.0000 0.0000 -10608.6242 1438.8870 0.0000 0.0000 1759.8630 -7409.8743 305.2752 -9169.7373 -7406.8033 300.0703 76.8887 180.4100 30007.7559 2.5510 2.3195
ENERGY: 1200000 0.0000 0.0000 0.0000 0.0000 -10521.9112 1408.0489 0.0000 0.0000 1815.7634 -7298.0990 314.9720 -9113.8623 -7291.1805 300.6668 110.6459 196.9904 29812.6487 2.2072 2.2164
ENERGY: 1500000 0.0000 0.0000 0.0000 0.0000 -10450.9609 1425.2938 0.0000 0.0000 1709.6295 -7316.0377 296.5614 -9025.6672 -7313.8698 299.5660 207.0031 248.6800 30373.9843 4.1689 4.0194
TCL: Running FEP window   2: Lambda1 0.95   Lambda2 0.8999999999999999 [dLambda -0.050000000000000044]
TCL: Setting parameter firsttimestep to 0
TCL: Setting parameter alchLambda to 0.95
Info: NONBONDED TABLE R-SQUARED SPACING: 0.0625
Info: NONBONDED TABLE SIZE: 705 POINTS
TCL: Setting parameter alchLambda2 to 0.8999999999999999
Info: NONBONDED TABLE R-SQUARED SPACING: 0.0625
Info: NONBONDED TABLE SIZE: 705 POINTS
TCL: Running for 1500000 steps
ETITLE: TS BOND ANGLE DIHED IMPRP ELECT VDW BOUNDARY MISC KINETIC TOTAL TEMP POTENTIAL TOTAL3 TEMPAVG PRESSURE GPRESSURE VOLUME PRESSAVG GPRESSAVG
ENERGY: 0 0.0000 0.0000 0.0000 0.0000 -10450.4814 1425.0049 0.0000 0.0000 1708.7539 -7316.7225 296.4095 -9025.4765 -7314.2925 296.4095 136.1805 228.1635 30373.9843 136.1805 228.1635
ENERGY: 300000 0.0000 0.0000 0.0000 0.0000 -10578.4274 1369.2445 0.0000 0.0000 1701.3891 -7507.7938 295.1320 -9209.1829 -7504.4556 300.5033 -644.7468 -534.7227 29979.7671 2.6677 2.7791
ENERGY: 600000 0.0000 0.0000 0.0000 0.0000 -10599.7956 1459.4412 0.0000 0.0000 1798.6119 -7341.7425 311.9968 -9140.3545 -7339.4518 300.7167 675.8871 799.3973 29583.1973 3.8943 3.8544
ENERGY: 900000 0.0000 0.0000 0.0000 0.0000 -10694.8623 1453.4724 0.0000 0.0000 1708.7898 -7532.6000 296.4158 -9241.3899 -7529.1138 299.6014 264.4473 340.7734 29604.7746 4.6560 4.6653
ENERGY: 1200000 0.0000 0.0000 0.0000 0.0000 -10519.4196 1395.8532 0.0000 0.0000 1738.4269 -7385.1396 301.5568 -9123.5664 -7381.3462 300.1705 149.9585 240.3192 29688.0166 3.4346 3.4358
ENERGY: 1500000 0.0000 0.0000 0.0000 0.0000 -10614.4438 1496.3281 0.0000 0.0000 1722.0363 -7396.0793 298.7136 -9118.1157 -7390.9359 299.7518 734.8972 877.1177 29893.2337 3.6798 3.6236
TCL: Running FEP window   3: Lambda1 0.8999999999999999 Lambda2 0.8499999999999999 [dLambda -0.050000000000000044]
TCL: Setting parameter firsttimestep to 0
TCL: Setting parameter alchLambda to 0.8999999999999999
Info: NONBONDED TABLE R-SQUARED SPACING: 0.0625
Info: NONBONDED TABLE SIZE: 705 POINTS
TCL: Setting parameter alchLambda2 to 0.8499999999999999
Info: NONBONDED TABLE R-SQUARED SPACING: 0.0625
Info: NONBONDED TABLE SIZE: 705 POINTS
TCL: Running for 1500000 steps
ETITLE: TS BOND ANGLE DIHED IMPRP ELECT VDW BOUNDARY MISC KINETIC TOTAL TEMP POTENTIAL TOTAL3 TEMPAVG PRESSURE GPRESSURE VOLUME PRESSAVG GPRESSAVG
ENERGY: 0 0.0000 0.0000 0.0000 0.0000 -10614.2418 1496.0346 0.0000 0.0000 1721.1526 -7397.0546 298.5603 -9118.2072 -7395.3457 298.5603 773.9878 859.8295 29893.2337 773.9878 859.8295
ENERGY: 100000 0.0000 0.0000 0.0000 0.0000 -10654.6607 1446.9430 0.0000 0.0000 1680.2599 -7527.4578 291.4668 -9207.7177 -7524.2672 299.7571 77.0550 81.0462 29918.1187 2.2126 2.1132
ENERGY: 200000 0.0000 0.0000 0.0000 0.0000 -10491.2199 1409.0478 0.0000 0.0000 1760.5458 -7321.6263 305.3936 -9082.1721 -7319.1907 299.9317 187.5989 263.3958 30098.2594 1.5142 1.6216
ENERGY: 300000 0.0000 0.0000 0.0000 0.0000 -10610.3441 1482.4916 0.0000 0.0000 1700.5000 -7427.3525 294.9778 -9127.8525 -7424.9546 300.0193 662.2542 688.3796 29846.6415 3.1097 3.0800
ENERGY: 400000 0.0000 0.0000 0.0000 0.0000 -10613.5408 1418.6172 0.0000 0.0000 1688.9108 -7506.0128 292.9674 -9194.9236 -7501.5409 300.1846 -70.2250 11.7826 29884.8171 2.9860 2.8600
