Info: SIMULATION PARAMETERS:
Info: TIMESTEP               2
Info: NUMBER OF STEPS        0
Info: STEPS PER CYCLE        10
Info: PERIODIC CELL BASIS 1  43.924 0 0
Info: PERIODIC CELL BASIS 2  0 39.115 0
Info: PERIODIC CELL BASIS 3  0 0 38.617
Info: PERIODIC CELL CENTER   0 0 0
Info: WRAPPING WATERS AROUND PERIODIC BOUNDARIES ON OUTPUT.
Info: WRAPPING ALL CLUSTERS AROUND PERIODIC BOUNDARIES ON OUTPUT.
Info: FIRST LDB TIMESTEP     50
Info: LAST LDB TIMESTEP     -1
Info: HOM BACKGROUND SCALING 1
Info: PME BACKGROUND SCALING 1
Info: MIN ATOMS PER PATCH    40
Info: EMPTY PATCH LOAD       40 ATOMS
Info: INITIAL TEMPERATURE    300
Info: CENTER OF MASS MOVING INITIALLY? NO
Info: DIELECTRIC             1
Info: EXCLUDE                SCALED ONE-FOUR
Info: 1-4 ELECTROSTATICS SCALED BY 0.833333
Info: MODIFIED 1-4 VDW PARAMETERS WILL BE USED
Info: DCD FILENAME           mobley_1235151_min.dcd
Info: DCD FREQUENCY          5000
Info: DCD FIRST STEP         5000
Info: DCD FILE WILL CONTAIN UNIT CELL DATA
Info: XST FILENAME           mobley_1235151_min.xst
Info: XST FREQUENCY          5000
Info: NO VELOCITY DCD OUTPUT
Info: NO FORCE DCD OUTPUT
Info: OUTPUT FILENAME        mobley_1235151_min
Info: BINARY OUTPUT FILES WILL BE USED
Info: RESTART FILENAME       mobley_1235151_min.restart
Info: RESTART FREQUENCY      5000
Info: BINARY RESTART FILES WILL BE USED
Info: CUTOFF                 9
Info: PAIRLIST DISTANCE      11
Info: PAIRLIST SHRINK RATE   0.01
Info: PAIRLIST GROW RATE     0.01
Info: PAIRLIST TRIGGER       0.3
Info: PAIRLISTS PER CYCLE    2
Info: PAIRLISTS ENABLED
Info: MARGIN                 8
Info: HYDROGEN GROUP CUTOFF  2.5
Info: PATCH DIMENSION        21.5
Info: ENERGY OUTPUT STEPS    5000
Info: ENERGY EVALUATION STEPS    5000
Info: OUTPUT ENERGY PRECISION 4
Info: CROSSTERM ENERGY INCLUDED IN DIHEDRAL
Info: TIMING OUTPUT STEPS    50000
Info: PRESSURE OUTPUT STEPS  5000
Info: LANGEVIN DYNAMICS ACTIVE
Info: LANGEVIN TEMPERATURE   300
Info: LANGEVIN USING BBK INTEGRATOR
Info: LANGEVIN DAMPING COEFFICIENT IS 1 INVERSE PS
Info: LANGEVIN DYNAMICS APPLIED TO HYDROGENS
Info: LANGEVIN PISTON PRESSURE CONTROL ACTIVE
Info:        TARGET PRESSURE IS 1.01325 BAR
Info:     OSCILLATION PERIOD IS 50 FS
Info:             DECAY TIME IS 25 FS
Info:     PISTON TEMPERATURE IS 300 K
Info:       PRESSURE CONTROL IS GROUP-BASED
Info:    INITIAL STRAIN RATE IS 0 0 0
Info:       CELL FLUCTUATION IS ISOTROPIC
Info: PARTICLE MESH EWALD (PME) ACTIVE
Info: PME TOLERANCE               1e-06
Info: PME EWALD COEFFICIENT       0.348832
Info: PME INTERPOLATION ORDER     4
Info: PME GRID DIMENSIONS         44 40 40
Info: PME MAXIMUM GRID SPACING    1
Info: FULL ELECTROSTATIC EVALUATION FREQUENCY      2
Info: USING VERLET I (r-RESPA) MTS SCHEME.
Info: C1 SPLITTING OF LONG RANGE ELECTROSTATICS
Info: PLACING ATOMS IN PATCHES BY HYDROGEN GROUPS
Info: RIGID BONDS TO HYDROGEN : ALL
Info:         ERROR TOLERANCE : 1e-08
Info:          MAX ITERATIONS : 100
Info: RIGID WATER USING SETTLE ALGORITHM
Info: RANDOM NUMBER SEED     1741309220
Info: USE HYDROGEN BONDS?    NO
Info: Using AMBER format force field!
Info: AMBER PARM FILE        mobley_1235151.prmtop
Info: COORDINATE PDB         mobley_1235151.pdb
Info: Exclusions will be read from PARM file!
Info: SCNB (VDW SCALING)     2
Info: USING ARITHMETIC MEAN TO COMBINE L-J SIGMA PARAMETERS
Info: SUMMARY OF PARAMETERS:
Info: 7 BONDS
Info: 9 ANGLES
Info:   9 HARMONIC
Info:   0 COSINE-BASED
Info: 6 DIHEDRAL
Info: 0 IMPROPER
Info: 0 CROSSTERM
Info: 0 VDW
Info: 28 VDW_PAIRS
Info: 0 NBTHOLE_PAIRS
Info: STRUCTURE SUMMARY:
Info: 4660 ATOMS
Info: 4659 BONDS
Info: 33 ANGLES
Info: 42 DIHEDRALS
Info: 0 IMPROPERS
Info: 0 CROSSTERMS
Info: 4734 EXCLUSIONS
Info: 4652 RIGID BONDS
Info: 9328 DEGREES OF FREEDOM
Info: 1555 HYDROGEN GROUPS
Info: 4 ATOMS IN LARGEST HYDROGEN GROUP
Info: 1555 MIGRATION GROUPS
Info: 4 ATOMS IN LARGEST MIGRATION GROUP
Info: TOTAL MASS = 27987.9 amu
Info: TOTAL CHARGE = -9.99942e-05 e
Info: MASS DENSITY = 0.700496 g/cm^3
Info: ATOM DENSITY = 0.0702364 atoms/A^3
Info: ADDED 0 IMPLICIT EXCLUSIONS
Info: NONBONDED TABLE R-SQUARED SPACING: 0.0625
Info: NONBONDED TABLE SIZE: 705 POINTS
Info: REMOVING COM VELOCITY -0.0690273 -0.0367752 0.0172165
TCL: Minimizing for 2000 steps
ETITLE: TS BOND ANGLE DIHED IMPRP ELECT VDW BOUNDARY MISC KINETIC TOTAL TEMP POTENTIAL TOTAL3 TEMPAVG PRESSURE GPRESSURE VOLUME PRESSAVG GPRESSAVG
ENERGY: 0 0.9938 0.5095 0.0158 0.0000 -14397.7597 1642.7590 0.0000 0.0000 0.0000 -12753.4817 0.0000 -12753.4817 -12753.4817 0.0000 10685.0332 -14903.4750 66347.3757 10685.0332 -14903.4750
ENERGY: 400 2.7326 2.4459 0.0761 0.0000 -19740.2198 3080.0016 0.0000 0.0000 0.0000 -16654.9637 0.0000 -16654.9637 -16654.9637 0.0000 16341.1157 15994.8209 66347.3757 16341.1157 15994.8209
ENERGY: 800 0.8256 1.2235 0.0686 0.0000 -20655.8453 3462.2815 0.0000 0.0000 0.0000 -17191.4460 0.0000 -17191.4460 -17191.4460 0.0000 18218.5866 17830.2190 66347.3757 18218.5866 17830.2190
ENERGY: 1200 0.4303 1.2050 0.1432 0.0000 -20966.1994 3546.2688 0.0000 0.0000 0.0000 -17418.1521 0.0000 -17418.1521 -17418.1521 0.0000 18660.8182 18271.0961 66347.3757 18660.8182 18271.0961
ENERGY: 1600 0.1694 0.4429 0.1014 0.0000 -21215.3993 3638.5595 0.0000 0.0000 0.0000 -17576.1261 0.0000 -17576.1261 -17576.1261 0.0000 19124.5815 18679.6325 66347.3757 19124.5815 18679.6325
ENERGY: 2000 0.2498 0.4374 0.0738 0.0000 -21349.6597 3692.5802 0.0000 0.0000 0.0000 -17656.3184 0.0000 -17656.3184 -17656.3184 0.0000 19432.4062 18968.6437 66347.3757 19432.4062 18968.6437
TCL: Exiting due to exit command.
Info: NAMD 3.0.1 for Linux-x86_64-multicore
Info: Please visit http://www.ks.uiuc.edu/Research/namd/
Info: for updates, documentation, and support information.
Info: Please cite Phillips et al., J. Chem. Phys. 153:044130 (2020) doi:10.1063/5.0014475
Info: in all publications reporting results obtained with NAMD.
Info: Based on Charm++/Converse 80000 for multicore-linux-x86_64-gcc
Info: Built Mon Oct 14 11:11:06 CDT 2024 by dhardy on athine.ks.uiuc.edu
Info: 1 NAMD  3.0.1  Linux-x86_64-multicore  16    k015  z5358697
Info: Running on 16 processors, 1 nodes, 1 physical nodes.
Info: CPU topology information available.
Info: Charm++/Converse parallel runtime startup completed at 0.00974892 s
Info: 1043.45 MB of memory in use based on /proc/self/stat
Info: Configuration file is mobley_1235151_equil.namd
Info: Working in the current directory /srv/scratch/z5358697/prod_prep/1235151
TCL: Running 25000 steps at 30 kelvin.
TCL: Suspending until startup complete.
Info: SIMULATION PARAMETERS:
Info: TIMESTEP               2
Info: NUMBER OF STEPS        0
Info: STEPS PER CYCLE        10
Info: PERIODIC CELL BASIS 1  43.924 0 0
Info: PERIODIC CELL BASIS 2  0 39.115 0
Info: PERIODIC CELL BASIS 3  0 0 38.617
Info: PERIODIC CELL CENTER   0 0 0
Info: WRAPPING WATERS AROUND PERIODIC BOUNDARIES ON OUTPUT.
Info: WRAPPING ALL CLUSTERS AROUND PERIODIC BOUNDARIES ON OUTPUT.
Info: FIRST LDB TIMESTEP     50
Info: LAST LDB TIMESTEP     -1
Info: HOM BACKGROUND SCALING 1
Info: PME BACKGROUND SCALING 1
Info: MIN ATOMS PER PATCH    40
Info: EMPTY PATCH LOAD       40 ATOMS
Info: INITIAL TEMPERATURE    300
Info: CENTER OF MASS MOVING INITIALLY? NO
Info: DIELECTRIC             1
Info: EXCLUDE                SCALED ONE-FOUR
Info: 1-4 ELECTROSTATICS SCALED BY 0.833333
Info: MODIFIED 1-4 VDW PARAMETERS WILL BE USED
Info: DCD FILENAME           mobley_1235151_equil.dcd
Info: DCD FREQUENCY          5000
Info: DCD FIRST STEP         5000
Info: DCD FILE WILL CONTAIN UNIT CELL DATA
Info: XST FILENAME           mobley_1235151_equil.xst
Info: XST FREQUENCY          5000
Info: NO VELOCITY DCD OUTPUT
Info: NO FORCE DCD OUTPUT
Info: OUTPUT FILENAME        mobley_1235151_equil
Info: BINARY OUTPUT FILES WILL BE USED
Info: RESTART FILENAME       mobley_1235151_equil.restart
Info: RESTART FREQUENCY      5000
Info: BINARY RESTART FILES WILL BE USED
Info: CUTOFF                 9
Info: PAIRLIST DISTANCE      11
Info: PAIRLIST SHRINK RATE   0.01
Info: PAIRLIST GROW RATE     0.01
Info: PAIRLIST TRIGGER       0.3
Info: PAIRLISTS PER CYCLE    2
Info: PAIRLISTS ENABLED
Info: MARGIN                 8
Info: HYDROGEN GROUP CUTOFF  2.5
Info: PATCH DIMENSION        21.5
Info: ENERGY OUTPUT STEPS    5000
Info: ENERGY EVALUATION STEPS    5000
Info: OUTPUT ENERGY PRECISION 4
Info: CROSSTERM ENERGY INCLUDED IN DIHEDRAL
Info: TIMING OUTPUT STEPS    50000
Info: PRESSURE OUTPUT STEPS  5000
Info: LANGEVIN DYNAMICS ACTIVE
Info: LANGEVIN TEMPERATURE   30
Info: LANGEVIN USING BBK INTEGRATOR
Info: LANGEVIN DAMPING COEFFICIENT IS 1 INVERSE PS
Info: LANGEVIN DYNAMICS APPLIED TO HYDROGENS
Info: LANGEVIN PISTON PRESSURE CONTROL ACTIVE
Info:        TARGET PRESSURE IS 1.01325 BAR
Info:     OSCILLATION PERIOD IS 50 FS
Info:             DECAY TIME IS 25 FS
Info:     PISTON TEMPERATURE IS 300 K
Info:       PRESSURE CONTROL IS GROUP-BASED
Info:    INITIAL STRAIN RATE IS 0 0 0
Info:       CELL FLUCTUATION IS ISOTROPIC
Info: PARTICLE MESH EWALD (PME) ACTIVE
Info: PME TOLERANCE               1e-06
Info: PME EWALD COEFFICIENT       0.348832
Info: PME INTERPOLATION ORDER     4
Info: PME GRID DIMENSIONS         44 40 40
Info: PME MAXIMUM GRID SPACING    1
Info: FULL ELECTROSTATIC EVALUATION FREQUENCY      2
Info: USING VERLET I (r-RESPA) MTS SCHEME.
Info: C1 SPLITTING OF LONG RANGE ELECTROSTATICS
Info: PLACING ATOMS IN PATCHES BY HYDROGEN GROUPS
Info: RIGID BONDS TO HYDROGEN : ALL
Info:         ERROR TOLERANCE : 1e-08
Info:          MAX ITERATIONS : 100
Info: RIGID WATER USING SETTLE ALGORITHM
Info: RANDOM NUMBER SEED     1741309239
Info: USE HYDROGEN BONDS?    NO
Info: Using AMBER format force field!
Info: AMBER PARM FILE        mobley_1235151.prmtop
Info: COORDINATE PDB         mobley_1235151.pdb
Info: Exclusions will be read from PARM file!
Info: SCNB (VDW SCALING)     2
Info: USING ARITHMETIC MEAN TO COMBINE L-J SIGMA PARAMETERS
Info: BINARY COORDINATES     mobley_1235151_min.coor
Info: SUMMARY OF PARAMETERS:
Info: 7 BONDS
Info: 9 ANGLES
Info: 6 DIHEDRAL
Info: 0 IMPROPER
Info: 0 CROSSTERM
Info: 0 VDW
Info: 28 VDW_PAIRS
Info: 0 NBTHOLE_PAIRS
Info: STRUCTURE SUMMARY:
Info: 4660 ATOMS
Info: 4659 BONDS
Info: 33 ANGLES
Info: 42 DIHEDRALS
Info: 0 IMPROPERS
Info: 0 CROSSTERMS
Info: 4734 EXCLUSIONS
Info: 4652 RIGID BONDS
Info: 9328 DEGREES OF FREEDOM
Info: 1555 HYDROGEN GROUPS
Info: 4 ATOMS IN LARGEST HYDROGEN GROUP
Info: 1555 MIGRATION GROUPS
Info: 4 ATOMS IN LARGEST MIGRATION GROUP
Info: TOTAL MASS = 27987.9 amu
Info: TOTAL CHARGE = -9.99942e-05 e
Info: MASS DENSITY = 0.700496 g/cm^3
Info: ATOM DENSITY = 0.0702364 atoms/A^3
Info: ADDED 0 IMPLICIT EXCLUSIONS
Info: NONBONDED TABLE R-SQUARED SPACING: 0.0625
Info: NONBONDED TABLE SIZE: 705 POINTS
Info: REMOVING COM VELOCITY 0.142337 0.0314388 -0.263001
TCL: Running for 25000 steps
ETITLE: TS BOND ANGLE DIHED IMPRP ELECT VDW BOUNDARY MISC KINETIC TOTAL TEMP POTENTIAL TOTAL3 TEMPAVG PRESSURE GPRESSURE VOLUME PRESSAVG GPRESSAVG
ENERGY: 0 0.2498 0.4374 0.0738 0.0000 -21349.6597 3692.5802 0.0000 0.0000 2728.5480 -14927.7704 294.3970 -17656.3184 -14927.2223 294.3970 180.9654 219.1976 66347.3757 180.9654 219.1976
ENERGY: 5000 0.3969 1.0253 0.1802 0.0000 -22312.1841 3874.8146 0.0000 0.0000 281.7939 -18153.9731 30.4042 -18435.7671 -18153.2506 47.3032 83.2208 132.8757 45459.2476 -5.6353 -5.7089
ENERGY: 10000 0.4036 1.4533 0.2011 0.0000 -22118.7070 3645.7977 0.0000 0.0000 273.7232 -18197.1281 29.5334 -18470.8513 -18196.4069 30.1532 -1261.2844 -1196.9829 45861.0502 4.2330 4.3068
ENERGY: 15000 0.4040 0.9687 0.1322 0.0000 -22512.1000 4004.2571 0.0000 0.0000 280.5672 -18225.7707 30.2718 -18506.3379 -18225.0159 30.3392 679.8656 747.0780 45152.0267 1.6465 1.7395
ENERGY: 20000 0.2272 1.3031 0.1657 0.0000 -22354.6061 3819.8091 0.0000 0.0000 278.0467 -18255.0543 29.9999 -18533.1009 -18254.2565 30.0108 -407.0065 -362.1621 45447.7715 3.7070 3.6556
ENERGY: 25000 0.2575 1.0272 0.0875 0.0000 -22421.9976 3881.6021 0.0000 0.0000 277.2553 -18261.7680 29.9145 -18539.0234 -18261.0248 29.9661 -110.3388 -46.2914 45476.6861 2.9366 3.1624
TCL: Running 25000 steps at 60 kelvin.
TCL: Setting parameter langevinTemp to 60
TCL: Running for 25000 steps
ETITLE: TS BOND ANGLE DIHED IMPRP ELECT VDW BOUNDARY MISC KINETIC TOTAL TEMP POTENTIAL TOTAL3 TEMPAVG PRESSURE GPRESSURE VOLUME PRESSAVG GPRESSAVG
ENERGY: 25000 0.2575 1.0272 0.0875 0.0000 -22421.9976 3881.6021 0.0000 0.0000 277.1180 -18261.9054 29.8997 -18539.0234 -18261.2700 29.8997 -98.7376 -46.4410 45476.6861 -98.7376 -46.4410
ENERGY: 30000 0.6784 2.2151 0.5882 0.0000 -21907.3215 3632.8772 0.0000 0.0000 559.4142 -17711.5483 60.3581 -18270.9625 -17709.9620 57.3680 -826.9586 -761.1402 45869.1996 4.4145 4.6081
ENERGY: 35000 0.6737 1.4728 0.2650 0.0000 -22137.0027 3823.0978 0.0000 0.0000 571.2255 -17740.2680 61.6325 -18311.4935 -17738.4547 60.4595 228.5988 288.5069 45222.9333 2.0967 2.2748
ENERGY: 40000 0.1153 2.1907 0.4675 0.0000 -22226.0277 3891.0224 0.0000 0.0000 561.2150 -17771.0167 60.5524 -18332.2318 -17770.0932 60.5468 610.9141 693.7688 45046.9953 7.2133 7.3946
ENERGY: 45000 0.4150 3.3527 0.1624 0.0000 -22276.9400 3943.5818 0.0000 0.0000 539.6916 -17789.7365 58.2301 -18329.4281 -17788.8665 60.1209 906.4445 963.7979 44956.7571 3.0136 2.9422
ENERGY: 50000 0.2058 1.6824 0.6667 0.0000 -22241.9368 3879.5093 0.0000 0.0000 555.8388 -17804.0339 59.9723 -18359.8726 -17802.6262 59.8510 423.9818 484.9160 45180.7522 0.4003 0.6603
TCL: Running 25000 steps at 90 kelvin.
TCL: Setting parameter langevinTemp to 90
TCL: Running for 25000 steps
ETITLE: TS BOND ANGLE DIHED IMPRP ELECT VDW BOUNDARY MISC KINETIC TOTAL TEMP POTENTIAL TOTAL3 TEMPAVG PRESSURE GPRESSURE VOLUME PRESSAVG GPRESSAVG
ENERGY: 50000 0.2058 1.6824 0.6667 0.0000 -22241.9368 3879.5093 0.0000 0.0000 555.5650 -17804.3076 59.9428 -18359.8726 -17803.0855 59.9428 425.3208 484.7854 45180.7522 425.3208 484.7854
ENERGY: 55000 0.4466 2.6028 0.0722 0.0000 -21720.9804 3617.8285 0.0000 0.0000 821.2073 -17278.8231 88.6043 -18100.0304 -17277.1201 86.9179 -383.9857 -311.4931 45582.1850 1.9519 2.3807
ENERGY: 60000 0.3555 2.8326 0.7050 0.0000 -21826.9763 3671.6952 0.0000 0.0000 837.1760 -17314.2119 90.3272 -18151.3879 -17312.0341 90.4195 -112.2941 -57.6571 45310.0265 -4.0241 -3.9921
ENERGY: 65000 0.2408 2.2929 0.4959 0.0000 -22015.1108 3807.2311 0.0000 0.0000 818.7468 -17386.1033 88.3388 -18204.8501 -17384.3428 90.7732 613.1356 672.5757 44854.8048 1.1207 1.0365
ENERGY: 70000 0.1524 3.1387 0.5404 0.0000 -21851.2452 3667.7304 0.0000 0.0000 844.0038 -17335.6794 91.0639 -18179.6832 -17333.2014 90.0747 -118.6431 -45.3565 45169.7039 3.1484 3.2497
ENERGY: 75000 0.2875 1.9370 0.2009 0.0000 -21804.3173 3594.6738 0.0000 0.0000 844.4545 -17362.7637 91.1125 -18207.2182 -17360.3771 89.7234 -661.4633 -610.9427 45329.8803 1.7846 2.0628
TCL: Running 25000 steps at 120 kelvin.
TCL: Setting parameter langevinTemp to 120
TCL: Running for 25000 steps
ETITLE: TS BOND ANGLE DIHED IMPRP ELECT VDW BOUNDARY MISC KINETIC TOTAL TEMP POTENTIAL TOTAL3 TEMPAVG PRESSURE GPRESSURE VOLUME PRESSAVG GPRESSAVG
ENERGY: 75000 0.2875 1.9370 0.2009 0.0000 -21804.3173 3594.6738 0.0000 0.0000 844.0422 -17363.1760 91.0680 -18207.2182 -17361.2583 91.0680 -669.8854 -610.7002 45329.8803 -669.8854 -610.7002
ENERGY: 80000 1.7173 3.7361 0.1883 0.0000 -21288.8360 3427.4638 0.0000 0.0000 1111.5549 -16744.1754 119.9314 -17855.7304 -16741.8592 116.2014 -883.6963 -827.5022 45746.3056 0.9403 0.7311
ENERGY: 85000 1.3263 3.9617 0.1647 0.0000 -21412.2741 3491.6497 0.0000 0.0000 1121.9976 -16793.1742 121.0581 -17915.1719 -16789.8918 120.2541 -678.7345 -636.3218 46044.1408 3.0856 3.2438
ENERGY: 90000 1.3632 2.9433 0.3336 0.0000 -21530.2120 3625.7300 0.0000 0.0000 1122.5602 -16777.2817 121.1188 -17899.8419 -16775.1988 120.4418 77.3278 155.2508 45680.3731 7.3525 7.4006
ENERGY: 95000 0.1665 2.5971 0.6008 0.0000 -21544.2867 3615.5011 0.0000 0.0000 1104.8922 -16820.5289 119.2125 -17925.4212 -16818.1680 120.8919 -0.9390 41.3301 45858.5759 2.5933 2.5757
ENERGY: 100000 0.6180 4.4318 0.5638 0.0000 -21480.5959 3545.2119 0.0000 0.0000 1130.7864 -16798.9840 122.0063 -17929.7704 -16797.0979 120.5142 -437.8982 -371.8143 45932.8294 3.8922 4.1107
TCL: Running 25000 steps at 150 kelvin.
TCL: Setting parameter langevinTemp to 150
TCL: Running for 25000 steps
ETITLE: TS BOND ANGLE DIHED IMPRP ELECT VDW BOUNDARY MISC KINETIC TOTAL TEMP POTENTIAL TOTAL3 TEMPAVG PRESSURE GPRESSURE VOLUME PRESSAVG GPRESSAVG
ENERGY: 100000 0.6180 4.4318 0.5638 0.0000 -21480.5959 3545.2119 0.0000 0.0000 1130.2157 -16799.5547 121.9448 -17929.7704 -16797.6964 121.9448 -427.9472 -372.3245 45932.8294 -427.9472 -372.3245
ENERGY: 105000 0.9712 4.1436 0.5457 0.0000 -21077.2404 3485.6541 0.0000 0.0000 1352.5274 -16233.3985 145.9311 -17585.9259 -16229.3648 148.3678 142.0362 200.8385 45840.4807 2.7240 3.0886
ENERGY: 110000 1.1851 7.3847 0.1070 0.0000 -20983.3507 3366.5732 0.0000 0.0000 1370.1065 -16237.9941 147.8278 -17608.1006 -16235.1370 149.6944 -539.0185 -478.9729 45952.0043 5.5030 5.2826
ENERGY: 115000 1.4215 3.9719 0.8836 0.0000 -20971.3918 3368.6987 0.0000 0.0000 1367.1477 -16229.2685 147.5086 -17596.4162 -16225.5851 150.5415 -473.5967 -405.0160 45746.8369 4.7614 4.5716
ENERGY: 120000 1.0992 4.8044 0.2817 0.0000 -21172.2436 3504.9276 0.0000 0.0000 1395.0559 -16266.0747 150.5197 -17661.1306 -16262.1291 151.4970 171.3441 205.2816 45435.2629 1.4634 1.3055
ENERGY: 125000 1.7222 2.7665 0.1492 0.0000 -21058.2013 3405.9227 0.0000 0.0000 1431.4894 -16216.1513 154.4507 -17647.6407 -16212.4584 149.5866 -405.4267 -357.5224 45743.4780 4.7454 4.6103
TCL: Running 50000 steps at 180 kelvin.
TCL: Setting parameter langevinTemp to 180
TCL: Running for 50000 steps
ETITLE: TS BOND ANGLE DIHED IMPRP ELECT VDW BOUNDARY MISC KINETIC TOTAL TEMP POTENTIAL TOTAL3 TEMPAVG PRESSURE GPRESSURE VOLUME PRESSAVG GPRESSAVG
ENERGY: 125000 1.7222 2.7665 0.1492 0.0000 -21058.2013 3405.9227 0.0000 0.0000 1430.7871 -16216.8535 154.3750 -17647.6407 -16214.2432 154.3750 -411.3392 -357.6681 45743.4780 -411.3392 -357.6681
ENERGY: 135000 0.8852 5.2544 0.6288 0.0000 -20407.5943 3179.3895 0.0000 0.0000 1709.3850 -15512.0515 184.4343 -17221.4364 -15507.9853 180.2280 -705.9152 -627.6381 46178.0899 1.6387 1.3932
ENERGY: 145000 0.4346 5.9522 0.2378 0.0000 -20680.4345 3327.6440 0.0000 0.0000 1646.8862 -15699.2797 177.6910 -17346.1658 -15695.1072 179.0115 -131.9025 -83.9196 45836.7192 -0.7078 -0.6015
ENERGY: 155000 0.6671 5.4536 0.6509 0.0000 -20824.2629 3474.4320 0.0000 0.0000 1650.6193 -15692.4400 178.0938 -17343.0593 -15689.4455 180.0852 609.0080 654.9418 45570.8246 2.1635 2.0875
ENERGY: 165000 1.3513 2.9547 0.5545 0.0000 -20501.1184 3181.5955 0.0000 0.0000 1684.9064 -15629.7560 181.7932 -17314.6624 -15626.0227 180.5076 -916.6741 -840.0077 45875.9038 3.5806 3.6784
ENERGY: 175000 2.8168 6.8248 0.4047 0.0000 -20612.8671 3232.4124 0.0000 0.0000 1684.4210 -15685.9875 181.7408 -17370.4085 -15680.9326 180.8910 -738.9249 -631.2936 45733.0386 2.6794 3.2951
TCL: Running 50000 steps at 210 kelvin.
TCL: Setting parameter langevinTemp to 210
TCL: Running for 50000 steps
ETITLE: TS BOND ANGLE DIHED IMPRP ELECT VDW BOUNDARY MISC KINETIC TOTAL TEMP POTENTIAL TOTAL3 TEMPAVG PRESSURE GPRESSURE VOLUME PRESSAVG GPRESSAVG
ENERGY: 175000 2.8168 6.8248 0.4047 0.0000 -20612.8671 3232.4124 0.0000 0.0000 1683.5708 -15686.8377 181.6491 -17370.4085 -15683.5345 181.6491 -691.0782 -630.1352 45733.0386 -691.0782 -630.1352
ENERGY: 185000 0.7946 6.8072 0.2706 0.0000 -19850.6031 3161.9922 0.0000 0.0000 1953.2216 -14727.5170 210.7431 -16680.7385 -14720.8290 209.3729 542.4120 614.3990 45769.5557 6.5391 5.9401
ENERGY: 195000 2.2454 7.3592 1.5428 0.0000 -19682.5318 3004.6620 0.0000 0.0000 1919.8609 -14746.8616 207.1436 -16666.7224 -14741.1439 210.1226 -87.1416 3.4681 45244.3760 3.9240 3.6070
ENERGY: 205000 2.0716 6.5420 1.4530 0.0000 -19575.6714 2949.8275 0.0000 0.0000 1996.4590 -14619.3183 215.4082 -16615.7773 -14615.0669 209.4043 -289.2690 -191.9377 45461.6084 8.2722 7.4207
ENERGY: 215000 1.1833 3.9251 0.2541 0.0000 -19547.0585 2912.5112 0.0000 0.0000 1952.8086 -14676.3762 210.6985 -16629.1848 -14671.6994 208.7801 -614.6455 -517.9839 45719.9495 1.6785 1.5204
ENERGY: 225000 0.5090 4.9799 2.3771 0.0000 -19750.9398 3113.0429 0.0000 0.0000 1912.9872 -14717.0438 206.4020 -16630.0309 -14714.3557 210.4103 620.4791 717.3890 45054.8300 8.6797 9.1624
TCL: Running 50000 steps at 240 kelvin.
TCL: Setting parameter langevinTemp to 240
TCL: Running for 50000 steps
ETITLE: TS BOND ANGLE DIHED IMPRP ELECT VDW BOUNDARY MISC KINETIC TOTAL TEMP POTENTIAL TOTAL3 TEMPAVG PRESSURE GPRESSURE VOLUME PRESSAVG GPRESSAVG
ENERGY: 225000 0.5090 4.9799 2.3771 0.0000 -19750.9398 3113.0429 0.0000 0.0000 1912.0344 -14717.9965 206.2992 -16630.0309 -14715.4438 206.2992 645.4352 716.0819 45054.8300 645.4352 716.0819
ENERGY: 235000 1.2631 5.0501 2.3378 0.0000 -18570.0501 2649.7184 0.0000 0.0000 2251.6756 -13660.0050 242.9448 -15911.6806 -13653.8536 239.8204 -434.4414 -340.8543 46073.7260 1.2692 1.5877
ENERGY: 245000 1.3960 8.6798 0.5986 0.0000 -18735.7274 2794.1899 0.0000 0.0000 2249.7134 -13681.1497 242.7331 -15930.8631 -13675.0656 241.0128 538.4553 634.9618 45491.5135 3.8380 4.3044
ENERGY: 255000 1.8888 7.4749 0.1819 0.0000 -18457.0075 2598.7221 0.0000 0.0000 2196.9911 -13651.7486 237.0446 -15848.7397 -13646.7205 240.6083 -301.5002 -201.2719 45566.5875 3.8691 4.2132
ENERGY: 265000 4.4565 8.5152 2.0967 0.0000 -18609.1704 2695.3098 0.0000 0.0000 2196.8626 -13701.9296 237.0308 -15898.7923 -13698.4755 240.4510 -113.9236 -27.6797 45646.4560 -1.2130 -0.8341
ENERGY: 275000 1.6689 5.1742 1.4665 0.0000 -18821.1775 2821.9686 0.0000 0.0000 2231.3529 -13759.5465 240.7521 -15990.8994 -13753.1944 238.5073 195.1356 267.3952 46261.5690 0.5124 0.0460
TCL: Running 50000 steps at 270 kelvin.
TCL: Setting parameter langevinTemp to 270
TCL: Running for 50000 steps
ETITLE: TS BOND ANGLE DIHED IMPRP ELECT VDW BOUNDARY MISC KINETIC TOTAL TEMP POTENTIAL TOTAL3 TEMPAVG PRESSURE GPRESSURE VOLUME PRESSAVG GPRESSAVG
ENERGY: 275000 1.6689 5.1742 1.4665 0.0000 -18821.1775 2821.9686 0.0000 0.0000 2230.2308 -13760.6686 240.6310 -15990.8994 -13756.7764 240.6310 197.4739 268.3510 46261.5690 197.4739 268.3510
ENERGY: 285000 0.6560 11.5236 0.5771 0.0000 -17739.9802 2459.3507 0.0000 0.0000 2502.4250 -12765.4478 269.9995 -15267.8728 -12760.7912 270.2517 -119.8465 -11.1616 46690.4902 -1.3748 -1.8042
ENERGY: 295000 1.6220 9.4579 0.4610 0.0000 -17931.7875 2574.2796 0.0000 0.0000 2507.2146 -12838.7523 270.5162 -15345.9669 -12832.8905 269.1805 412.3778 516.4116 46337.0644 2.6664 2.6432
ENERGY: 305000 3.6090 10.8136 2.9726 0.0000 -17794.0013 2498.5535 0.0000 0.0000 2513.6334 -12764.4190 271.2088 -15278.0524 -12763.2048 270.2570 -112.5224 -54.7972 47077.0132 10.4013 9.9816
ENERGY: 315000 1.9179 7.9489 1.5878 0.0000 -17661.4130 2452.3375 0.0000 0.0000 2524.2947 -12673.3263 272.3591 -15197.6210 -12668.4546 270.4699 207.6924 281.5260 46536.3293 3.8360 3.4493
ENERGY: 325000 0.9611 9.4988 1.9804 0.0000 -17799.4698 2536.9312 0.0000 0.0000 2432.5991 -12817.4990 262.4656 -15250.0982 -12814.3846 269.0601 269.5468 315.0943 46935.1247 1.5350 1.9917
TCL: Running 1000000 steps at 300 kelvin.
TCL: Setting parameter langevinTemp to 300
TCL: Running for 1000000 steps
ETITLE: TS BOND ANGLE DIHED IMPRP ELECT VDW BOUNDARY MISC KINETIC TOTAL TEMP POTENTIAL TOTAL3 TEMPAVG PRESSURE GPRESSURE VOLUME PRESSAVG GPRESSAVG
ENERGY: 325000 0.9611 9.4988 1.9804 0.0000 -17799.4698 2536.9312 0.0000 0.0000 2431.3278 -12818.7703 262.3284 -15250.0982 -12815.3976 262.3284 231.4111 314.9741 46935.1247 231.4111 314.9741
ENERGY: 525000 4.6483 13.0920 0.6067 0.0000 -16819.7232 2225.7468 0.0000 0.0000 2809.2652 -11766.3643 303.1060 -14575.6295 -11761.3669 301.2799 -259.0500 -203.7582 48243.7451 1.0133 1.3989
ENERGY: 725000 1.8874 9.3437 1.5248 0.0000 -16844.5441 2168.3035 0.0000 0.0000 2800.6818 -11862.8029 302.1799 -14663.4847 -11857.0636 299.4289 -621.7041 -537.8055 48295.4878 0.2427 0.9348
ENERGY: 925000 1.8577 6.8465 1.2712 0.0000 -16868.7682 2278.8646 0.0000 0.0000 2844.9354 -11734.9928 306.9547 -14579.9282 -11728.6860 299.0240 205.5459 285.1012 47992.3825 7.1633 7.3633
ENERGY: 1125000 1.3830 9.5168 1.1054 0.0000 -16878.2364 2250.3052 0.0000 0.0000 2737.6725 -11878.2536 295.3815 -14615.9260 -11872.1316 299.2825 -29.3879 29.6513 47998.6327 5.9791 5.9850
ENERGY: 1325000 1.6678 11.2833 3.3959 0.0000 -17031.4224 2338.0137 0.0000 0.0000 2791.6902 -11885.3716 301.2098 -14677.0618 -11881.7611 300.5939 306.6302 366.6221 47723.8572 -1.5329 -1.0305
TCL: Exiting due to exit command.
