Info: SIMULATION PARAMETERS:
Info: TIMESTEP               2
Info: NUMBER OF STEPS        0
Info: STEPS PER CYCLE        10
Info: PERIODIC CELL BASIS 1  30.8663 0 0
Info: PERIODIC CELL BASIS 2  0 29.4662 0
Info: PERIODIC CELL BASIS 3  0 0 33.041
Info: PERIODIC CELL CENTER   0 0 0
Info: WRAPPING WATERS AROUND PERIODIC BOUNDARIES ON OUTPUT.
Info: WRAPPING ALL CLUSTERS AROUND PERIODIC BOUNDARIES ON OUTPUT.
Info: FIRST LDB TIMESTEP     50
Info: LAST LDB TIMESTEP     -1
Info: HOM BACKGROUND SCALING 1
Info: PME BACKGROUND SCALING 1
Info: MIN ATOMS PER PATCH    40
Info: EMPTY PATCH LOAD       40 ATOMS
Info: VELOCITY FILE          mobley_7608462_equil.vel
Info: CENTER OF MASS MOVING INITIALLY? NO
Info: DIELECTRIC             1
Info: EXCLUDE                SCALED ONE-FOUR
Info: 1-4 ELECTROSTATICS SCALED BY 0.833333
Info: MODIFIED 1-4 VDW PARAMETERS WILL BE USED
Info: DCD FILENAME           mobley_7608462_prod.dcd
Info: DCD FREQUENCY          100000
Info: DCD FIRST STEP         100000
Info: DCD FILE WILL CONTAIN UNIT CELL DATA
Info: XST FILENAME           mobley_7608462_prod.xst
Info: XST FREQUENCY          100000
Info: NO VELOCITY DCD OUTPUT
Info: NO FORCE DCD OUTPUT
Info: OUTPUT FILENAME        mobley_7608462_prod
Info: BINARY OUTPUT FILES WILL BE USED
Info: RESTART FILENAME       mobley_7608462_prod.restart
Info: RESTART FREQUENCY      100000
Info: BINARY RESTART FILES WILL BE USED
Info: CUTOFF                 9
Info: PAIRLIST DISTANCE      11
Info: PAIRLIST SHRINK RATE   0.01
Info: PAIRLIST GROW RATE     0.01
Info: PAIRLIST TRIGGER       0.3
Info: PAIRLISTS PER CYCLE    2
Info: PAIRLISTS ENABLED
Info: MARGIN                 2
Info: HYDROGEN GROUP CUTOFF  2.5
Info: PATCH DIMENSION        15.5
Info: ENERGY OUTPUT STEPS    100000
Info: ENERGY EVALUATION STEPS    100000
Info: OUTPUT ENERGY PRECISION 4
Info: CROSSTERM ENERGY INCLUDED IN DIHEDRAL
Info: TIMING OUTPUT STEPS    1000000
Info: PRESSURE OUTPUT STEPS  100000
Info: ALCHEMICAL FEP ON
Info: FEP CURRENT LAMBDA VALUE     0
Info: FEP COMPARISON LAMBDA VALUE  0.05
Info: FEP INTRA-ALCHEMICAL NON-BONDED INTERACTIONS WILL BE RETAINED
Info: FEP INTRA-ALCHEMICAL BONDED INTERACTIONS WILL BE RETAINED
Info: FEP VDW SHIFTING COEFFICIENT 5
Info: FEP ELEC. ACTIVE FOR ANNIHILATED PARTICLES BETWEEN LAMBDA = 0 AND LAMBDA = 0.5
Info: FEP ELEC. ACTIVE FOR EXNIHILATED PARTICLES BETWEEN LAMBDA = 0.5 AND LAMBDA = 1
Info: FEP VDW ACTIVE FOR ANNIHILATED PARTICLES BETWEEN LAMBDA = 0 AND LAMBDA = 1
Info: FEP VDW ACTIVE FOR EXNIHILATED PARTICLES BETWEEN LAMBDA = 0 AND LAMBDA = 1
Info: FEP BOND ACTIVE FOR ANNIHILATED PARTICLES BETWEEN LAMBDA = 1 AND LAMBDA = 1
Info: FEP BOND ACTIVE FOR EXNIHILATED PARTICLES BETWEEN LAMBDA = 0 AND LAMBDA = 0
Info: LANGEVIN DYNAMICS ACTIVE
Info: LANGEVIN TEMPERATURE   300
Info: LANGEVIN USING BBK INTEGRATOR
Info: LANGEVIN DAMPING COEFFICIENT IS 1 INVERSE PS
Info: LANGEVIN DYNAMICS APPLIED TO HYDROGENS
Info: LANGEVIN PISTON PRESSURE CONTROL ACTIVE
Info:        TARGET PRESSURE IS 1.01325 BAR
Info:     OSCILLATION PERIOD IS 50 FS
Info:             DECAY TIME IS 25 FS
Info:     PISTON TEMPERATURE IS 300 K
Info:       PRESSURE CONTROL IS GROUP-BASED
Info:    INITIAL STRAIN RATE IS -0.000433004 -0.000433004 -0.000433004
Info:       CELL FLUCTUATION IS ISOTROPIC
Info: PARTICLE MESH EWALD (PME) ACTIVE
Info: PME TOLERANCE               1e-06
Info: PME EWALD COEFFICIENT       0.348832
Info: PME INTERPOLATION ORDER     4
Info: PME GRID DIMENSIONS         32 32 36
Info: PME MAXIMUM GRID SPACING    1
Info: PME CALCULATION WILL BE PERFORMED ON GPU
Info: FULL ELECTROSTATIC EVALUATION FREQUENCY      2
Info: USING VERLET I (r-RESPA) MTS SCHEME.
Info: C1 SPLITTING OF LONG RANGE ELECTROSTATICS
Info: PLACING ATOMS IN PATCHES BY HYDROGEN GROUPS
Info: RIGID BONDS TO HYDROGEN : ALL
Info:         ERROR TOLERANCE : 1e-08
Info:          MAX ITERATIONS : 100
Info: RIGID WATER USING SETTLE ALGORITHM
Info: RANDOM NUMBER SEED     1742245124
Info: USE HYDROGEN BONDS?    NO
Info: Using AMBER format force field!
Info: AMBER PARM FILE        mobley_7608462.prmtop
Info: COORDINATE PDB         mobley_7608462.pdb
Info: Exclusions will be read from PARM file!
Info: SCNB (VDW SCALING)     2
Info: USING ARITHMETIC MEAN TO COMBINE L-J SIGMA PARAMETERS
Info: BINARY COORDINATES     mobley_7608462_equil.coor
Info: SUMMARY OF PARAMETERS:
Info: 5 BONDS
Info: 3 ANGLES
Info:   3 HARMONIC
Info:   0 COSINE-BASED
Info: 2 DIHEDRAL
Info: 0 IMPROPER
Info: 0 CROSSTERM
Info: 0 VDW
Info: 15 VDW_PAIRS
Info: 0 NBTHOLE_PAIRS
Info: To read alchdata from file: mobley_7608462.pdb
Info: To read alchflag data from column: 5
Info: STRUCTURE SUMMARY:
Info: 2934 ATOMS
Info: 2934 BONDS
Info: 18 ANGLES
Info: 30 DIHEDRALS
Info: 0 IMPROPERS
Info: 0 CROSSTERMS
Info: 2973 EXCLUSIONS
Info: 2927 RIGID BONDS
Info: ALCH: 0 ATOMS TO DISAPPEAR IN FINAL STATE
Info: ALCH: 12 ATOMS TO APPEAR IN FINAL STATE
Info: 5875 DEGREES OF FREEDOM
Info: 981 HYDROGEN GROUPS
Info: 3 ATOMS IN LARGEST HYDROGEN GROUP
Info: 981 MIGRATION GROUPS
Info: 3 ATOMS IN LARGEST MIGRATION GROUP
Info: TOTAL MASS = 17660.1 amu
Info: TOTAL CHARGE = 9.99775e-05 e
Info: MASS DENSITY = 0.97587 g/cm^3
Info: ATOM DENSITY = 0.0976335 atoms/A^3
Info: ADDED 0 IMPLICIT EXCLUSIONS
Info: NONBONDED TABLE R-SQUARED SPACING: 0.0625
Info: NONBONDED TABLE SIZE: 705 POINTS
Info: REMOVING COM VELOCITY 0.0103221 0.116562 -0.235356
Info: Use 3D box decompostion in PME FFT.
Info: Updated CUDA force table with 4096 elements.
Info: Updated CUDA LJ table with 5 x 5 elements.
Info: Found 14 unique exclusion lists needing 24 bytes
TCL: Running for 1500000 steps
ETITLE: TS BOND ANGLE DIHED IMPRP ELECT VDW BOUNDARY MISC KINETIC TOTAL TEMP POTENTIAL TOTALAVG TEMPAVG PRESSURE GPRESSURE VOLUME PRESSAVG GPRESSAVG
ENERGY: 0 1.9664 4.4666 2.6014 0.0000 -10655.8752 1453.5226 0.0000 0.0000 1661.4550 -7531.8632 284.6237 -9193.3182 -7531.8632 284.6237 63.8555 153.3389 30051.1472 63.8555 153.3389
ENERGY: 300000 1.7867 3.3894 1.8019 0.0000 -10731.4866 1509.2577 0.0000 0.0000 1743.0437 -7472.2071 298.6007 -9215.2509 -7487.8024 296.6647 247.6012 263.6350 30643.9917 139.4072 174.5905
ENERGY: 600000 1.4780 1.3661 4.5134 0.0000 -10590.3592 1452.2490 0.0000 0.0000 1734.1142 -7396.6385 297.0710 -9130.7527 -7444.4985 298.5452 599.6351 585.5288 29982.6780 12.6082 55.7532
ENERGY: 900000 0.8192 3.4639 0.4374 0.0000 -10539.7746 1367.5746 0.0000 0.0000 1742.3604 -7425.1193 298.4836 -9167.4796 -7453.3127 298.6702 -236.1351 -204.0833 29952.7529 26.6264 69.7615
ENERGY: 1200000 2.8417 4.8797 2.9310 0.0000 -10736.2260 1496.5217 0.0000 0.0000 1745.3059 -7483.7460 298.9882 -9229.0519 -7462.0360 299.2902 239.4008 291.2539 30098.8655 -7.7362 37.1591
ENERGY: 1500000 2.2259 2.5349 3.1220 0.0000 -10546.1928 1341.4419 0.0000 0.0000 1731.6928 -7465.1754 296.6562 -9196.8682 -7461.1099 299.4932 -786.0640 -700.1733 30010.7724 -120.9424 -71.8349
TCL: Running FEP window   2: Lambda1 0.05   Lambda2 0.1    [dLambda 0.05  ]
TCL: Setting parameter firsttimestep to 0
TCL: Setting parameter alchLambda to 0.05
Info: NONBONDED TABLE R-SQUARED SPACING: 0.0625
Info: NONBONDED TABLE SIZE: 705 POINTS
TCL: Setting parameter alchLambda2 to 0.1
Info: NONBONDED TABLE R-SQUARED SPACING: 0.0625
Info: NONBONDED TABLE SIZE: 705 POINTS
TCL: Running for 1500000 steps
ETITLE: TS BOND ANGLE DIHED IMPRP ELECT VDW BOUNDARY MISC KINETIC TOTAL TEMP POTENTIAL TOTALAVG TEMPAVG PRESSURE GPRESSURE VOLUME PRESSAVG GPRESSAVG
ENERGY: 0 2.2259 2.5349 3.1220 0.0000 -10546.1924 1343.7469 0.0000 0.0000 1730.7920 -7463.7708 296.5018 -9194.5628 -7463.7708 296.5018 -778.5311 -692.5847 30010.7724 -778.5311 -692.5847
ENERGY: 300000 2.6753 1.3760 2.8853 0.0000 -10541.9347 1420.8807 0.0000 0.0000 1796.7497 -7317.3677 307.8010 -9114.1174 -7419.7201 301.9077 18.9677 111.0663 30167.9476 -135.0325 -55.3838
ENERGY: 600000 2.5583 1.8904 1.6620 0.0000 -10635.1897 1418.1228 0.0000 0.0000 1689.7407 -7521.2155 289.4693 -9210.9562 -7454.2904 300.3835 -358.0562 -316.3161 30296.2359 -80.6204 -10.3828
ENERGY: 900000 1.3864 4.4255 1.6358 0.0000 -10835.1420 1552.9726 0.0000 0.0000 1798.8392 -7475.8825 308.1590 -9274.7217 -7445.6534 300.8979 574.0526 625.8823 30417.0941 -45.7313 12.8556
ENERGY: 1200000 1.0628 2.6578 0.9824 0.0000 -10669.2081 1435.5400 0.0000 0.0000 1791.1648 -7437.8004 306.8443 -9228.9651 -7437.1952 300.9642 -57.1248 -34.5462 30084.6088 0.0448 58.0538
ENERGY: 1500000 3.3541 3.1277 1.4322 0.0000 -10623.2690 1416.3954 0.0000 0.0000 1794.4231 -7404.5365 307.4025 -9198.9596 -7430.9932 302.0912 202.6247 244.8931 29759.5527 9.8935 67.9548
TCL: Running FEP window   3: Lambda1 0.1    Lambda2 0.15000000000000002 [dLambda 0.05000000000000002]
TCL: Setting parameter firsttimestep to 0
TCL: Setting parameter alchLambda to 0.1
Info: NONBONDED TABLE R-SQUARED SPACING: 0.0625
Info: NONBONDED TABLE SIZE: 705 POINTS
TCL: Setting parameter alchLambda2 to 0.15000000000000002
Info: NONBONDED TABLE R-SQUARED SPACING: 0.0625
Info: NONBONDED TABLE SIZE: 705 POINTS
TCL: Running for 1500000 steps
ETITLE: TS BOND ANGLE DIHED IMPRP ELECT VDW BOUNDARY MISC KINETIC TOTAL TEMP POTENTIAL TOTALAVG TEMPAVG PRESSURE GPRESSURE VOLUME PRESSAVG GPRESSAVG
ENERGY: 0 3.3541 3.1277 1.4322 0.0000 -10623.2682 1419.6778 0.0000 0.0000 1793.5499 -7402.1266 307.2529 -9195.6764 -7402.1266 307.2529 158.9299 252.7815 29759.5527 158.9299 252.7815
ENERGY: 300000 2.2889 3.9847 2.3385 0.0000 -10892.5913 1584.2755 0.0000 0.0000 1789.7851 -7509.9185 306.6079 -9299.7036 -7408.0883 307.0235 1073.5523 1083.7931 29792.3171 299.8163 353.0304
ENERGY: 600000 1.9585 1.8287 0.9533 0.0000 -10734.9568 1433.8806 0.0000 0.0000 1773.2080 -7523.1276 303.7681 -9296.3355 -7418.0958 304.3278 -194.4443 -94.4586 29603.6137 -130.7475 -73.8176
ENERGY: 900000 0.6271 1.3164 1.6546 0.0000 -10718.8675 1452.8117 0.0000 0.0000 1723.6622 -7538.7955 295.2804 -9262.4577 -7426.3859 301.9609 -202.7502 -161.1612 30276.7172 -304.6293 -254.1476
ENERGY: 1200000 2.0148 2.0253 9.0587 0.0000 -10635.7538 1451.5880 0.0000 0.0000 1731.4898 -7439.5772 296.6214 -9171.0670 -7428.7232 300.6762 108.5074 75.5689 30151.3692 -273.5558 -221.2669
ENERGY: 1500000 1.4011 3.7791 6.0810 0.0000 -10594.0747 1419.9246 0.0000 0.0000 1738.6442 -7424.2445 297.8470 -9162.8887 -7433.0864 299.3511 -157.7835 -94.1053 30221.2635 -287.9581 -231.6000
TCL: Running FEP window   4: Lambda1 0.15000000000000002 Lambda2 0.2    [dLambda 0.04999999999999999]
TCL: Setting parameter firsttimestep to 0
TCL: Setting parameter alchLambda to 0.15000000000000002
Info: NONBONDED TABLE R-SQUARED SPACING: 0.0625
Info: NONBONDED TABLE SIZE: 705 POINTS
TCL: Setting parameter alchLambda2 to 0.2
Info: NONBONDED TABLE R-SQUARED SPACING: 0.0625
Info: NONBONDED TABLE SIZE: 705 POINTS
TCL: Running for 1500000 steps
ETITLE: TS BOND ANGLE DIHED IMPRP ELECT VDW BOUNDARY MISC KINETIC TOTAL TEMP POTENTIAL TOTALAVG TEMPAVG PRESSURE GPRESSURE VOLUME PRESSAVG GPRESSAVG
ENERGY: 0 1.4011 3.7791 6.0810 0.0000 -10594.0767 1421.2368 0.0000 0.0000 1737.7463 -7423.8323 297.6932 -9161.5786 -7423.8323 297.6932 -177.4816 -83.2826 30221.2635 -177.4816 -83.2826
ENERGY: 300000 1.6805 4.8329 2.5262 0.0000 -10663.6741 1340.7003 0.0000 0.0000 1721.6183 -7592.3158 294.9303 -9313.9342 -7501.9301 298.3507 -983.0005 -868.6334 29642.5477 -242.7511 -168.7724
ENERGY: 600000 1.2378 3.6195 2.1468 0.0000 -10714.6709 1414.7979 0.0000 0.0000 1711.5675 -7581.3014 293.2085 -9292.8689 -7502.3486 297.0220 -526.7334 -443.6305 29966.6092 -326.0727 -258.3640
ENERGY: 900000 4.6963 5.1524 1.3149 0.0000 -10577.8874 1318.7797 0.0000 0.0000 1775.7095 -7472.2346 304.1967 -9247.9442 -7499.1733 297.8963 -1214.1772 -1136.4660 30156.1020 -280.0559 -212.7922
ENERGY: 1200000 2.1282 3.1202 2.9002 0.0000 -10642.6120 1502.2272 0.0000 0.0000 1755.7298 -7376.5065 300.7739 -9132.2363 -7486.0471 298.1414 691.2142 732.9952 30244.2067 -140.2238 -71.8847
ENERGY: 1500000 2.5051 2.4964 3.4078 0.0000 -10581.4662 1405.1545 0.0000 0.0000 1707.9531 -7459.9492 292.5893 -9167.9023 -7481.5894 297.7220 -262.2253 -289.3417 30356.8485 -188.6968 -122.9717
TCL: Running FEP window   5: Lambda1 0.2    Lambda2 0.25   [dLambda 0.04999999999999999]
TCL: Setting parameter firsttimestep to 0
TCL: Setting parameter alchLambda to 0.2
Info: NONBONDED TABLE R-SQUARED SPACING: 0.0625
Info: NONBONDED TABLE SIZE: 705 POINTS
TCL: Setting parameter alchLambda2 to 0.25
Info: NONBONDED TABLE R-SQUARED SPACING: 0.0625
Info: NONBONDED TABLE SIZE: 705 POINTS
TCL: Running for 1500000 steps
ETITLE: TS BOND ANGLE DIHED IMPRP ELECT VDW BOUNDARY MISC KINETIC TOTAL TEMP POTENTIAL TOTALAVG TEMPAVG PRESSURE GPRESSURE VOLUME PRESSAVG GPRESSAVG
ENERGY: 0 2.5051 2.4964 3.4078 0.0000 -10581.4679 1405.8978 0.0000 0.0000 1707.0926 -7460.0682 292.4419 -9167.1608 -7460.0682 292.4419 -357.0176 -281.9711 30356.8485 -357.0176 -281.9711
ENERGY: 300000 2.2404 3.6629 2.9821 0.0000 -10575.2401 1410.3635 0.0000 0.0000 1683.7073 -7472.2839 288.4358 -9155.9911 -7489.6836 294.5908 -284.6561 -215.3447 30337.4781 95.1802 158.5082
ENERGY: 600000 0.8796 1.9567 3.5103 0.0000 -10587.8539 1383.8860 0.0000 0.0000 1742.3287 -7455.2927 298.4782 -9197.6213 -7485.2745 296.2915 -331.7207 -343.2706 30353.5397 -30.0194 17.3321
ENERGY: 900000 3.2885 3.4836 2.8391 0.0000 -10512.2333 1317.3667 0.0000 0.0000 1737.8462 -7447.4092 297.7103 -9185.2554 -7475.3664 297.5464 -802.5233 -770.1487 30003.5986 -251.6481 -205.2589
ENERGY: 1200000 1.9307 5.7060 2.0713 0.0000 -10755.6367 1495.2647 0.0000 0.0000 1754.7310 -7495.9329 300.6028 -9250.6639 -7483.1147 297.5004 461.4947 498.2025 29820.3102 -94.6973 -41.6199
ENERGY: 1500000 2.8631 3.8716 2.4730 0.0000 -10587.6553 1442.7736 0.0000 0.0000 1743.5650 -7392.1090 298.6900 -9135.6741 -7469.6712 297.9317 -232.9549 -128.2306 30507.3080 -72.6992 -16.6292
TCL: Running FEP window   6: Lambda1 0.25   Lambda2 0.3    [dLambda 0.04999999999999999]
TCL: Setting parameter firsttimestep to 0
TCL: Setting parameter alchLambda to 0.25
Info: NONBONDED TABLE R-SQUARED SPACING: 0.0625
Info: NONBONDED TABLE SIZE: 705 POINTS
TCL: Setting parameter alchLambda2 to 0.3
Info: NONBONDED TABLE R-SQUARED SPACING: 0.0625
Info: NONBONDED TABLE SIZE: 705 POINTS
TCL: Running for 1500000 steps
ETITLE: TS BOND ANGLE DIHED IMPRP ELECT VDW BOUNDARY MISC KINETIC TOTAL TEMP POTENTIAL TOTALAVG TEMPAVG PRESSURE GPRESSURE VOLUME PRESSAVG GPRESSAVG
ENERGY: 0 2.8631 3.8716 2.4730 0.0000 -10587.6553 1443.4291 0.0000 0.0000 1742.6808 -7392.3377 298.5385 -9135.0185 -7392.3377 298.5385 -217.6745 -119.7680 30507.3080 -217.6745 -119.7680
ENERGY: 300000 1.5021 0.3435 3.4594 0.0000 -10658.9217 1415.0924 0.0000 0.0000 1742.8072 -7495.7172 298.5602 -9238.5244 -7470.2986 297.3322 -339.6195 -204.5038 30018.3980 -354.1965 -258.2201
ENERGY: 600000 0.6076 1.8972 5.8153 0.0000 -10540.7367 1397.4096 0.0000 0.0000 1740.5586 -7394.4484 298.1750 -9135.0070 -7456.6882 300.3184 -292.6194 -149.9317 30372.4995 -282.9093 -180.4700
ENERGY: 900000 2.5057 4.1619 2.5462 0.0000 -10615.0147 1399.8442 0.0000 0.0000 1746.4190 -7459.5377 299.1789 -9205.9568 -7454.9430 299.7058 -308.8532 -221.9196 29879.3748 -288.0103 -195.2173
ENERGY: 1200000 0.6728 3.0911 2.8413 0.0000 -10484.0526 1308.8721 0.0000 0.0000 1727.1808 -7441.3945 295.8832 -9168.5753 -7457.3892 299.9671 -1157.3647 -1040.1068 30528.6124 -228.9869 -138.7599
ENERGY: 1500000 3.5230 2.0942 1.6770 0.0000 -10724.3831 1474.4875 0.0000 0.0000 1730.6243 -7511.9771 296.4731 -9242.6014 -7463.3884 299.2494 -50.3561 -45.3760 30193.0358 -177.7073 -105.0784
TCL: Running FEP window   7: Lambda1 0.3    Lambda2 0.35   [dLambda 0.04999999999999999]
TCL: Setting parameter firsttimestep to 0
TCL: Setting parameter alchLambda to 0.3
Info: NONBONDED TABLE R-SQUARED SPACING: 0.0625
Info: NONBONDED TABLE SIZE: 705 POINTS
TCL: Setting parameter alchLambda2 to 0.35
Info: NONBONDED TABLE R-SQUARED SPACING: 0.0625
Info: NONBONDED TABLE SIZE: 705 POINTS
TCL: Running for 1500000 steps
ETITLE: TS BOND ANGLE DIHED IMPRP ELECT VDW BOUNDARY MISC KINETIC TOTAL TEMP POTENTIAL TOTALAVG TEMPAVG PRESSURE GPRESSURE VOLUME PRESSAVG GPRESSAVG
ENERGY: 0 3.5230 2.0942 1.6770 0.0000 -10724.3828 1474.1478 0.0000 0.0000 1729.7430 -7513.1977 296.3221 -9242.9407 -7513.1977 296.3221 -121.6285 -44.9831 30193.0358 -121.6285 -44.9831
ENERGY: 300000 2.0132 2.2172 1.3635 0.0000 -10604.5132 1370.3634 0.0000 0.0000 1748.5726 -7479.9832 299.5478 -9228.5559 -7457.0320 299.8694 -335.9128 -350.0830 29953.3774 -124.4988 -84.8217
ENERGY: 600000 2.1740 1.4373 2.3831 0.0000 -10551.4006 1402.9790 0.0000 0.0000 1731.8987 -7410.5285 296.6914 -9142.4272 -7447.7580 299.3653 -163.3127 -94.5673 30097.8007 -161.7348 -102.7308
ENERGY: 900000 0.5260 2.5367 3.5120 0.0000 -10452.5824 1367.1058 0.0000 0.0000 1830.0597 -7248.8424 313.5074 -9078.9020 -7415.0798 301.6837 -155.0619 -126.1106 30207.6754 -216.9644 -157.6279
ENERGY: 1200000 2.1456 1.0460 3.7677 0.0000 -10522.9514 1364.7757 0.0000 0.0000 1679.4219 -7471.7946 287.7016 -9151.2165 -7429.7511 299.7973 -627.6148 -512.2525 30184.0923 -259.5539 -193.1121
ENERGY: 1500000 3.2873 1.8364 2.6317 0.0000 -10532.7402 1328.3993 0.0000 0.0000 1790.2451 -7406.3405 306.6867 -9196.5856 -7432.9311 300.8679 -843.5567 -815.8561 30212.2656 -244.1215 -181.3344
TCL: Running FEP window   8: Lambda1 0.35   Lambda2 0.39999999999999997 [dLambda 0.04999999999999999]
TCL: Setting parameter firsttimestep to 0
TCL: Setting parameter alchLambda to 0.35
Info: NONBONDED TABLE R-SQUARED SPACING: 0.0625
Info: NONBONDED TABLE SIZE: 705 POINTS
TCL: Setting parameter alchLambda2 to 0.39999999999999997
Info: NONBONDED TABLE R-SQUARED SPACING: 0.0625
Info: NONBONDED TABLE SIZE: 705 POINTS
TCL: Running for 1500000 steps
ETITLE: TS BOND ANGLE DIHED IMPRP ELECT VDW BOUNDARY MISC KINETIC TOTAL TEMP POTENTIAL TOTALAVG TEMPAVG PRESSURE GPRESSURE VOLUME PRESSAVG GPRESSAVG
ENERGY: 0 3.2873 1.8364 2.6317 0.0000 -10532.7393 1329.0146 0.0000 0.0000 1789.3692 -7406.6001 306.5367 -9195.9694 -7406.6001 306.5367 -881.1356 -805.6790 30212.2656 -881.1356 -805.6790
ENERGY: 300000 5.4289 2.1103 0.8486 0.0000 -10645.8682 1466.7990 0.0000 0.0000 1741.2817 -7429.3998 298.2988 -9170.6814 -7417.4019 302.4306 355.2193 381.2142 29973.1149 54.9016 111.2358
ENERGY: 600000 2.7195 3.1961 1.7476 0.0000 -10638.9077 1453.5074 0.0000 0.0000 1685.8953 -7491.8417 288.8106 -9177.7371 -7431.0278 300.0674 57.9023 140.2055 30254.2088 49.9997 108.5124
ENERGY: 900000 2.0833 1.3844 2.1214 0.0000 -10621.5985 1413.0215 0.0000 0.0000 1761.8877 -7441.1002 301.8288 -9202.9879 -7437.5509 299.9822 -145.3444 -58.8607 30060.3002 -2.0004 58.5280
ENERGY: 1200000 2.7614 1.4947 3.0809 0.0000 -10648.7294 1485.9095 0.0000 0.0000 1786.6248 -7368.8581 306.0666 -9155.4829 -7424.4277 300.6615 450.1330 566.1932 30208.9341 127.6941 189.0608
ENERGY: 1500000 5.5509 1.4329 2.1813 0.0000 -10676.9275 1481.3771 0.0000 0.0000 1740.1491 -7446.2362 298.1048 -9186.3853 -7424.0784 300.5475 444.6893 523.0891 29925.2971 132.3251 196.9664
TCL: Running FEP window   9: Lambda1 0.39999999999999997 Lambda2 0.44999999999999996 [dLambda 0.04999999999999999]
TCL: Setting parameter firsttimestep to 0
TCL: Setting parameter alchLambda to 0.39999999999999997
Info: NONBONDED TABLE R-SQUARED SPACING: 0.0625
Info: NONBONDED TABLE SIZE: 705 POINTS
TCL: Setting parameter alchLambda2 to 0.44999999999999996
Info: NONBONDED TABLE R-SQUARED SPACING: 0.0625
Info: NONBONDED TABLE SIZE: 705 POINTS
TCL: Running for 1500000 steps
ETITLE: TS BOND ANGLE DIHED IMPRP ELECT VDW BOUNDARY MISC KINETIC TOTAL TEMP POTENTIAL TOTALAVG TEMPAVG PRESSURE GPRESSURE VOLUME PRESSAVG GPRESSAVG
ENERGY: 0 5.5509 1.4329 2.1813 0.0000 -10676.9288 1481.1455 0.0000 0.0000 1739.2211 -7447.3970 297.9458 -9186.6182 -7447.3970 297.9458 441.6439 525.4787 29925.2971 441.6439 525.4787
ENERGY: 300000 2.5922 4.1682 5.5963 0.0000 -10543.0257 1424.5184 0.0000 0.0000 1748.4237 -7357.7268 299.5223 -9106.1505 -7385.8401 300.5154 147.0749 192.6255 30434.0150 130.6254 166.0246
ENERGY: 600000 2.7005 2.4625 3.2455 0.0000 -10722.9864 1434.4947 0.0000 0.0000 1729.5330 -7550.5502 296.2862 -9280.0832 -7426.7884 300.5068 -337.0835 -262.4256 30306.3671 -128.7284 -83.7246
ENERGY: 900000 1.7409 3.0752 2.8043 0.0000 -10686.7109 1464.9914 0.0000 0.0000 1810.2430 -7403.8562 310.1126 -9214.0992 -7428.4458 301.2390 134.7367 213.5922 30325.5617 -3.1302 42.1822
ENERGY: 1200000 1.1353 1.8569 2.4981 0.0000 -10699.8537 1497.3862 0.0000 0.0000 1794.2412 -7402.7361 307.3713 -9196.9772 -7433.3300 300.9057 551.9222 611.4848 29984.8730 116.1624 167.6788
ENERGY: 1500000 1.8723 1.7263 1.0290 0.0000 -10738.8391 1436.2891 0.0000 0.0000 1748.1464 -7549.7759 299.4748 -9297.9223 -7447.1144 300.5511 -86.9670 -12.8621 29774.4714 19.0819 73.9236
TCL: Running FEP window  10: Lambda1 0.44999999999999996 Lambda2 0.49999999999999994 [dLambda 0.04999999999999999]
TCL: Setting parameter firsttimestep to 0
TCL: Setting parameter alchLambda to 0.44999999999999996
Info: NONBONDED TABLE R-SQUARED SPACING: 0.0625
Info: NONBONDED TABLE SIZE: 705 POINTS
TCL: Setting parameter alchLambda2 to 0.49999999999999994
Info: NONBONDED TABLE R-SQUARED SPACING: 0.0625
Info: NONBONDED TABLE SIZE: 705 POINTS
TCL: Running for 1500000 steps
ETITLE: TS BOND ANGLE DIHED IMPRP ELECT VDW BOUNDARY MISC KINETIC TOTAL TEMP POTENTIAL TOTALAVG TEMPAVG PRESSURE GPRESSURE VOLUME PRESSAVG GPRESSAVG
ENERGY: 0 1.8723 1.7263 1.0290 0.0000 -10738.8393 1436.8318 0.0000 0.0000 1747.2654 -7550.1145 299.3239 -9297.3799 -7550.1145 299.3239 -88.2872 -1.8728 29774.4714 -88.2872 -1.8728
ENERGY: 300000 2.2321 2.2147 4.0003 0.0000 -10581.8145 1380.4671 0.0000 0.0000 1742.6226 -7450.2776 298.5285 -9192.9003 -7480.1670 299.0508 -323.2594 -276.2219 30173.0221 -374.9236 -311.8331
ENERGY: 600000 1.3509 3.3857 2.0916 0.0000 -10524.3919 1386.8137 0.0000 0.0000 1742.7509 -7387.9991 298.5505 -9130.7501 -7452.1951 298.2627 -235.8930 -178.0167 30304.0589 -236.7046 -180.3221
ENERGY: 900000 3.1697 1.7006 2.7353 0.0000 -10696.4232 1476.5190 0.0000 0.0000 1740.3077 -7471.9907 298.1320 -9212.2985 -7436.7013 299.7880 249.5803 234.7181 30193.0031 -143.6801 -96.7543
ENERGY: 1200000 2.8963 3.4209 2.8205 0.0000 -10558.3097 1313.3244 0.0000 0.0000 1773.2861 -7462.5614 303.7815 -9235.8475 -7444.3187 299.3502 -1171.9495 -1124.8079 30023.1836 -70.9785 -26.8194
ENERGY: 1500000 0.5933 2.8415 3.7137 0.0000 -10675.7693 1454.6756 0.0000 0.0000 1737.6697 -7476.2754 297.6801 -9213.9451 -7444.8503 299.0897 159.2513 355.2245 29801.0100 -88.4157 -31.1062
TCL: Running FEP window  11: Lambda1 0.49999999999999994 Lambda2 0.5499999999999999 [dLambda 0.04999999999999999]
TCL: Setting parameter firsttimestep to 0
TCL: Setting parameter alchLambda to 0.49999999999999994
Info: NONBONDED TABLE R-SQUARED SPACING: 0.0625
Info: NONBONDED TABLE SIZE: 705 POINTS
TCL: Setting parameter alchLambda2 to 0.5499999999999999
Info: NONBONDED TABLE R-SQUARED SPACING: 0.0625
Info: NONBONDED TABLE SIZE: 705 POINTS
TCL: Running for 1500000 steps
ETITLE: TS BOND ANGLE DIHED IMPRP ELECT VDW BOUNDARY MISC KINETIC TOTAL TEMP POTENTIAL TOTALAVG TEMPAVG PRESSURE GPRESSURE VOLUME PRESSAVG GPRESSAVG
ENERGY: 0 0.5933 2.8415 3.7137 0.0000 -10675.7705 1454.5775 0.0000 0.0000 1736.7968 -7477.2476 297.5305 -9214.0444 -7477.2476 297.5305 264.4132 357.4884 29801.0100 264.4132 357.4884
ENERGY: 300000 3.0737 2.2179 3.8559 0.0000 -10615.9675 1411.2925 0.0000 0.0000 1740.0744 -7455.4531 298.0920 -9195.5275 -7449.5640 298.4772 -207.7775 -83.9328 30066.4031 -25.6027 61.0741
ENERGY: 600000 0.8075 5.7102 2.1883 0.0000 -10720.1957 1446.1097 0.0000 0.0000 1721.3197 -7544.0602 294.8791 -9265.3799 -7468.9895 297.5937 -37.3826 52.7407 29836.9252 -119.0117 -34.2534
ENERGY: 900000 1.3590 2.3360 1.5101 0.0000 -10608.8014 1352.0067 0.0000 0.0000 1755.3744 -7496.2152 300.7131 -9251.5897 -7474.3909 298.7178 -807.1740 -778.2818 30536.8493 -175.3456 -94.5092
ENERGY: 1200000 2.5189 1.9964 5.2366 0.0000 -10613.3985 1420.3848 0.0000 0.0000 1769.5251 -7413.7367 303.1372 -9183.2618 -7466.2925 298.8912 146.2062 300.7646 29793.8441 -196.8879 -113.7503
ENERGY: 1500000 3.1056 3.0196 1.5941 0.0000 -10662.6205 1468.2439 0.0000 0.0000 1734.2750 -7452.3822 297.0985 -9186.6572 -7458.6588 298.9723 280.5104 330.9910 30151.4393 -158.1510 -81.0516
TCL: Running FEP window  12: Lambda1 0.5499999999999999 Lambda2 0.6    [dLambda 0.050000000000000044]
TCL: Setting parameter firsttimestep to 0
TCL: Setting parameter alchLambda to 0.5499999999999999
Info: NONBONDED TABLE R-SQUARED SPACING: 0.0625
Info: NONBONDED TABLE SIZE: 705 POINTS
TCL: Setting parameter alchLambda2 to 0.6
Info: NONBONDED TABLE R-SQUARED SPACING: 0.0625
Info: NONBONDED TABLE SIZE: 705 POINTS
TCL: Running for 1500000 steps
ETITLE: TS BOND ANGLE DIHED IMPRP ELECT VDW BOUNDARY MISC KINETIC TOTAL TEMP POTENTIAL TOTALAVG TEMPAVG PRESSURE GPRESSURE VOLUME PRESSAVG GPRESSAVG
ENERGY: 0 3.1056 3.0196 1.5941 0.0000 -10662.8963 1467.9009 0.0000 0.0000 1733.4208 -7453.8553 296.9522 -9187.2760 -7453.8553 296.9522 237.8412 334.4773 30151.4393 237.8412 334.4773
ENERGY: 300000 0.4758 4.7272 3.1846 0.0000 -10665.4793 1509.1370 0.0000 0.0000 1706.9074 -7441.0473 292.4102 -9147.9547 -7447.4262 299.4782 814.3579 939.6999 30170.4617 17.5414 100.8978
ENERGY: 600000 2.1085 1.9307 1.6143 0.0000 -10662.2141 1478.4998 0.0000 0.0000 1759.7819 -7418.2789 301.4681 -9178.0608 -7444.4897 299.7980 365.3102 455.9773 29959.1339 47.2881 133.7715
ENERGY: 900000 2.5089 1.0705 2.4241 0.0000 -10663.5864 1418.4933 0.0000 0.0000 1801.0160 -7438.0735 308.5319 -9239.0896 -7449.0452 301.6827 -296.4751 -252.9221 30057.6633 -7.2209 74.4894
ENERGY: 1200000 2.6785 4.9162 2.5200 0.0000 -10725.9343 1455.3948 0.0000 0.0000 1730.3982 -7530.0266 296.4344 -9260.4248 -7452.5383 301.8373 131.0805 209.1419 29799.4518 28.7932 104.6516
ENERGY: 1500000 1.4908 2.0032 1.2317 0.0000 -10634.2127 1495.5470 0.0000 0.0000 1735.1498 -7398.7903 297.2484 -9133.9401 -7452.2598 301.0724 455.2743 516.4318 30711.4733 47.2304 118.4081
TCL: Running FEP window  13: Lambda1 0.6    Lambda2 0.65   [dLambda 0.050000000000000044]
TCL: Setting parameter firsttimestep to 0
TCL: Setting parameter alchLambda to 0.6
Info: NONBONDED TABLE R-SQUARED SPACING: 0.0625
Info: NONBONDED TABLE SIZE: 705 POINTS
TCL: Setting parameter alchLambda2 to 0.65
Info: NONBONDED TABLE R-SQUARED SPACING: 0.0625
Info: NONBONDED TABLE SIZE: 705 POINTS
TCL: Running for 1500000 steps
ETITLE: TS BOND ANGLE DIHED IMPRP ELECT VDW BOUNDARY MISC KINETIC TOTAL TEMP POTENTIAL TOTALAVG TEMPAVG PRESSURE GPRESSURE VOLUME PRESSAVG GPRESSAVG
ENERGY: 0 1.4908 2.0032 1.2317 0.0000 -10633.9678 1495.5302 0.0000 0.0000 1734.2691 -7399.4428 297.0975 -9133.7119 -7399.4428 297.0975 442.0371 521.7671 30711.4733 442.0371 521.7671
ENERGY: 300000 1.0130 2.6593 3.2474 0.0000 -10686.4257 1436.6095 0.0000 0.0000 1661.0187 -7581.8778 284.5490 -9242.8965 -7475.3043 294.4519 -255.8547 -192.1794 30123.6819 -265.6997 -183.1974
ENERGY: 600000 2.9615 3.2006 1.4481 0.0000 -10660.1781 1436.1278 0.0000 0.0000 1774.5524 -7441.8877 303.9984 -9216.4402 -7469.1811 297.0111 -57.3990 38.0249 30106.1390 -205.9748 -115.2571
ENERGY: 900000 1.6838 1.4128 1.4162 0.0000 -10520.3024 1376.1537 0.0000 0.0000 1742.8093 -7396.8267 298.5605 -9139.6360 -7470.7969 295.9035 -44.0000 -84.7099 29906.2606 18.3562 84.3151
ENERGY: 1200000 1.7791 2.7941 5.6639 0.0000 -10561.8903 1426.2923 0.0000 0.0000 1744.2775 -7381.0834 298.8120 -9125.3609 -7452.7648 298.1820 63.9525 103.8703 30254.6002 25.3962 92.6447
ENERGY: 1500000 0.9866 6.7081 2.5836 0.0000 -10504.6607 1310.5564 0.0000 0.0000 1797.6540 -7386.1720 307.9560 -9183.8260 -7437.6529 300.1639 -778.1972 -744.4856 30076.0676 -69.7852 -2.9487
TCL: Running FEP window  14: Lambda1 0.65   Lambda2 0.7000000000000001 [dLambda 0.050000000000000044]
TCL: Setting parameter firsttimestep to 0
TCL: Setting parameter alchLambda to 0.65
Info: NONBONDED TABLE R-SQUARED SPACING: 0.0625
Info: NONBONDED TABLE SIZE: 705 POINTS
TCL: Setting parameter alchLambda2 to 0.7000000000000001
Info: NONBONDED TABLE R-SQUARED SPACING: 0.0625
Info: NONBONDED TABLE SIZE: 705 POINTS
TCL: Running for 1500000 steps
ETITLE: TS BOND ANGLE DIHED IMPRP ELECT VDW BOUNDARY MISC KINETIC TOTAL TEMP POTENTIAL TOTALAVG TEMPAVG PRESSURE GPRESSURE VOLUME PRESSAVG GPRESSAVG
ENERGY: 0 0.9866 6.7081 2.5836 0.0000 -10504.3571 1311.0428 0.0000 0.0000 1796.7854 -7386.2505 307.8072 -9183.0359 -7386.2505 307.8072 -824.6062 -731.1540 30076.0676 -824.6062 -731.1540
ENERGY: 300000 1.1066 2.0206 3.7679 0.0000 -10588.8739 1361.4173 0.0000 0.0000 1743.4659 -7477.0956 298.6730 -9220.5615 -7405.6238 302.4466 -585.8143 -574.5484 30220.8674 -161.9247 -120.0482
ENERGY: 600000 2.9332 2.9826 4.3905 0.0000 -10610.2914 1423.1962 0.0000 0.0000 1769.0357 -7407.7531 303.0534 -9176.7889 -7411.3025 302.4194 -218.0106 -127.7677 30594.1707 -151.2631 -98.6394
ENERGY: 900000 1.0019 1.5700 1.7255 0.0000 -10504.8846 1343.3348 0.0000 0.0000 1750.5997 -7406.6526 299.8951 -9157.2524 -7412.8747 301.4944 -616.1457 -541.4516 30281.9946 -174.6995 -116.3318
ENERGY: 1200000 2.7635 1.7685 2.7114 0.0000 -10572.7747 1335.2074 0.0000 0.0000 1741.9919 -7488.3320 298.4205 -9230.3238 -7432.2432 299.6904 -881.7251 -836.7018 30285.0162 -133.1357 -76.4445
ENERGY: 1500000 2.0730 1.5575 0.9113 0.0000 -10636.2832 1399.5686 0.0000 0.0000 1743.5566 -7488.6161 298.6885 -9232.1727 -7430.3244 300.3309 -401.8680 -297.4338 30231.6756 -133.0541 -75.5313
TCL: Running FEP window  15: Lambda1 0.7000000000000001 Lambda2 0.7500000000000001 [dLambda 0.050000000000000044]
TCL: Setting parameter firsttimestep to 0
TCL: Setting parameter alchLambda to 0.7000000000000001
Info: NONBONDED TABLE R-SQUARED SPACING: 0.0625
Info: NONBONDED TABLE SIZE: 705 POINTS
TCL: Setting parameter alchLambda2 to 0.7500000000000001
Info: NONBONDED TABLE R-SQUARED SPACING: 0.0625
Info: NONBONDED TABLE SIZE: 705 POINTS
TCL: Running for 1500000 steps
ETITLE: TS BOND ANGLE DIHED IMPRP ELECT VDW BOUNDARY MISC KINETIC TOTAL TEMP POTENTIAL TOTALAVG TEMPAVG PRESSURE GPRESSURE VOLUME PRESSAVG GPRESSAVG
ENERGY: 0 2.0730 1.5575 0.9113 0.0000 -10636.9792 1399.6305 0.0000 0.0000 1742.6566 -7490.1503 298.5344 -9232.8069 -7490.1503 298.5344 -371.8158 -290.8940 30231.6756 -371.8158 -290.8940
ENERGY: 300000 2.3606 1.4865 2.4250 0.0000 -10696.2504 1422.1243 0.0000 0.0000 1768.2191 -7499.6350 302.9135 -9267.8541 -7524.2669 299.8210 -449.5658 -451.3797 30895.2194 -282.2019 -227.8903
ENERGY: 600000 2.2471 1.2642 2.2165 0.0000 -10774.6227 1524.4437 0.0000 0.0000 1812.5970 -7431.8543 310.5158 -9244.4512 -7479.5304 302.5564 466.3032 489.7700 30432.6328 -199.6826 -144.1654
ENERGY: 900000 0.7953 2.6862 1.1793 0.0000 -10834.0283 1537.2751 0.0000 0.0000 1726.4744 -7565.6180 295.7622 -9292.0924 -7495.6145 301.3912 718.3863 780.6129 29792.6005 32.1911 83.3908
ENERGY: 1200000 1.8837 5.1751 1.7982 0.0000 -10355.4724 1267.4401 0.0000 0.0000 1747.5411 -7331.6343 299.3711 -9079.1754 -7477.1688 301.0078 -891.0820 -834.7633 30415.1785 17.4510 73.2479
ENERGY: 1500000 1.6478 2.7151 1.9052 0.0000 -10728.4806 1484.1302 0.0000 0.0000 1752.3416 -7485.7407 300.1935 -9238.0823 -7478.8008 300.8861 299.3658 349.5581 30185.4323 21.3503 80.2518
TCL: Running FEP window  16: Lambda1 0.7500000000000001 Lambda2 0.8000000000000002 [dLambda 0.050000000000000044]
TCL: Setting parameter firsttimestep to 0
TCL: Setting parameter alchLambda to 0.7500000000000001
Info: NONBONDED TABLE R-SQUARED SPACING: 0.0625
Info: NONBONDED TABLE SIZE: 705 POINTS
TCL: Setting parameter alchLambda2 to 0.8000000000000002
Info: NONBONDED TABLE R-SQUARED SPACING: 0.0625
Info: NONBONDED TABLE SIZE: 705 POINTS
TCL: Running for 1500000 steps
ETITLE: TS BOND ANGLE DIHED IMPRP ELECT VDW BOUNDARY MISC KINETIC TOTAL TEMP POTENTIAL TOTALAVG TEMPAVG PRESSURE GPRESSURE VOLUME PRESSAVG GPRESSAVG
ENERGY: 0 1.6478 2.7151 1.9052 0.0000 -10728.5465 1483.6187 0.0000 0.0000 1751.4660 -7487.1937 300.0435 -9238.6597 -7487.1937 300.0435 256.5611 350.9665 30185.4323 256.5611 350.9665
ENERGY: 300000 2.0388 2.3935 3.2443 0.0000 -10739.9147 1476.2436 0.0000 0.0000 1770.4558 -7485.5387 303.2966 -9255.9945 -7432.1107 301.7010 481.0157 538.8630 29852.1438 -42.2487 67.1410
ENERGY: 600000 1.5325 3.7602 2.6496 0.0000 -10610.2843 1415.8197 0.0000 0.0000 1775.9431 -7410.5793 304.2367 -9186.5224 -7432.9081 302.0651 -124.7747 -104.4889 30193.9228 -123.1833 -36.0386
ENERGY: 900000 2.0992 1.5123 4.0228 0.0000 -10594.8243 1394.9997 0.0000 0.0000 1756.5311 -7435.6592 300.9112 -9192.1902 -7431.6988 301.9690 -381.9607 -290.3312 30528.7098 -172.6916 -88.8313
ENERGY: 1200000 4.5210 5.0115 4.4135 0.0000 -10633.0104 1454.1928 0.0000 0.0000 1759.8008 -7405.0707 301.4713 -9164.8715 -7422.4267 302.5491 -58.9707 8.0216 30563.8365 -92.6317 -13.9130
ENERGY: 1500000 1.0796 3.1058 5.3612 0.0000 -10791.9853 1514.9217 0.0000 0.0000 1721.9692 -7545.5478 294.9904 -9267.5170 -7433.3814 301.4063 608.4797 724.1718 29816.7151 -70.0039 10.2992
TCL: Running FEP window  17: Lambda1 0.8000000000000002 Lambda2 0.8500000000000002 [dLambda 0.050000000000000044]
TCL: Setting parameter firsttimestep to 0
TCL: Setting parameter alchLambda to 0.8000000000000002
Info: NONBONDED TABLE R-SQUARED SPACING: 0.0625
Info: NONBONDED TABLE SIZE: 705 POINTS
TCL: Setting parameter alchLambda2 to 0.8500000000000002
Info: NONBONDED TABLE R-SQUARED SPACING: 0.0625
Info: NONBONDED TABLE SIZE: 705 POINTS
TCL: Running for 1500000 steps
ETITLE: TS BOND ANGLE DIHED IMPRP ELECT VDW BOUNDARY MISC KINETIC TOTAL TEMP POTENTIAL TOTALAVG TEMPAVG PRESSURE GPRESSURE VOLUME PRESSAVG GPRESSAVG
ENERGY: 0 1.0796 3.1058 5.3612 0.0000 -10792.2406 1514.9605 0.0000 0.0000 1721.1116 -7546.6220 294.8435 -9267.7335 -7546.6220 294.8435 641.1129 733.6546 29816.7151 641.1129 733.6546
ENERGY: 300000 1.1026 6.8718 3.0535 0.0000 -10759.1519 1560.4309 0.0000 0.0000 1774.6248 -7413.0682 304.0108 -9187.6930 -7482.7731 300.5538 934.1739 996.1041 30433.6943 302.5516 382.3247
ENERGY: 600000 1.5243 3.1031 1.1102 0.0000 -10628.8455 1380.6789 0.0000 0.0000 1756.9221 -7485.5069 300.9782 -9242.4290 -7475.9882 300.4043 -858.3136 -798.2913 30943.8822 -47.3662 27.2722
ENERGY: 900000 1.4691 6.0509 4.1745 0.0000 -10685.3281 1469.2394 0.0000 0.0000 1709.7906 -7494.6037 292.9041 -9204.3942 -7470.2765 299.8582 228.6070 265.2168 30228.6747 -51.9297 13.6241
ENERGY: 1200000 1.3771 3.5752 4.4749 0.0000 -10567.0065 1369.6272 0.0000 0.0000 1776.8446 -7411.1074 304.3911 -9187.9521 -7468.0252 300.4162 -499.4731 -448.7143 30723.8015 -36.5694 31.0559
ENERGY: 1500000 0.8184 3.0623 1.5998 0.0000 -10640.7697 1426.6442 0.0000 0.0000 1750.8457 -7457.7993 299.9372 -9208.6450 -7460.8946 300.5207 4.2737 140.9878 30091.9696 16.2865 86.5192
TCL: Running FEP window  18: Lambda1 0.8500000000000002 Lambda2 0.9000000000000002 [dLambda 0.050000000000000044]
TCL: Setting parameter firsttimestep to 0
TCL: Setting parameter alchLambda to 0.8500000000000002
Info: NONBONDED TABLE R-SQUARED SPACING: 0.0625
Info: NONBONDED TABLE SIZE: 705 POINTS
TCL: Setting parameter alchLambda2 to 0.9000000000000002
Info: NONBONDED TABLE R-SQUARED SPACING: 0.0625
Info: NONBONDED TABLE SIZE: 705 POINTS
TCL: Running for 1500000 steps
ETITLE: TS BOND ANGLE DIHED IMPRP ELECT VDW BOUNDARY MISC KINETIC TOTAL TEMP POTENTIAL TOTALAVG TEMPAVG PRESSURE GPRESSURE VOLUME PRESSAVG GPRESSAVG
ENERGY: 0 0.8184 3.0623 1.5998 0.0000 -10641.1806 1426.5295 0.0000 0.0000 1749.9593 -7459.2114 299.7854 -9209.1706 -7459.2114 299.7854 49.5732 145.4298 30091.9696 49.5732 145.4298
ENERGY: 300000 1.2255 4.6475 2.1533 0.0000 -10598.2498 1381.6603 0.0000 0.0000 1778.7130 -7429.8503 304.7112 -9208.5633 -7459.2656 300.2830 -626.3507 -565.7115 30686.4912 -336.8819 -268.3201
ENERGY: 600000 3.2906 1.5928 2.1244 0.0000 -10582.1106 1347.0040 0.0000 0.0000 1744.1537 -7483.9451 298.7908 -9228.0988 -7464.3961 300.0022 -718.1926 -659.0686 30516.5449 -287.5950 -221.9875
ENERGY: 900000 1.1967 6.0170 5.3453 0.0000 -10692.4201 1468.1090 0.0000 0.0000 1734.1403 -7477.6117 297.0754 -9211.7520 -7457.0272 300.7309 224.8710 309.1832 30219.9133 -244.4206 -182.7472
ENERGY: 1200000 0.6282 2.0957 6.6089 0.0000 -10641.3426 1417.4653 0.0000 0.0000 1818.7692 -7395.7753 311.5732 -9214.5445 -7449.7251 300.8001 -172.6562 -76.5435 30234.7120 -227.9457 -167.8696
ENERGY: 1500000 2.4479 2.6879 5.4701 0.0000 -10549.3179 1381.3376 0.0000 0.0000 1729.9478 -7427.4266 296.3572 -9157.3744 -7444.7863 300.5055 -275.8664 -159.9602 30175.5104 -137.8873 -79.9681
TCL: Running FEP window  19: Lambda1 0.9000000000000002 Lambda2 0.9500000000000003 [dLambda 0.050000000000000044]
TCL: Setting parameter firsttimestep to 0
TCL: Setting parameter alchLambda to 0.9000000000000002
Info: NONBONDED TABLE R-SQUARED SPACING: 0.0625
Info: NONBONDED TABLE SIZE: 705 POINTS
TCL: Setting parameter alchLambda2 to 0.9500000000000003
Info: NONBONDED TABLE R-SQUARED SPACING: 0.0625
Info: NONBONDED TABLE SIZE: 705 POINTS
TCL: Running for 1500000 steps
ETITLE: TS BOND ANGLE DIHED IMPRP ELECT VDW BOUNDARY MISC KINETIC TOTAL TEMP POTENTIAL TOTALAVG TEMPAVG PRESSURE GPRESSURE VOLUME PRESSAVG GPRESSAVG
ENERGY: 0 2.4479 2.6879 5.4701 0.0000 -10549.4765 1380.9748 0.0000 0.0000 1729.0662 -7428.8296 296.2062 -9157.8958 -7428.8296 296.2062 -231.4084 -151.0613 30175.5104 -231.4084 -151.0613
ENERGY: 300000 2.8075 1.4229 3.2322 0.0000 -10634.2608 1427.8877 0.0000 0.0000 1764.8524 -7434.0581 302.3367 -9198.9105 -7479.8869 299.2707 36.3092 128.7628 30145.8979 -300.0372 -230.8442
ENERGY: 600000 1.1355 1.2531 3.3262 0.0000 -10489.4508 1336.6434 0.0000 0.0000 1781.3172 -7365.7755 305.1573 -9147.0927 -7454.8946 301.2385 -800.7098 -706.4720 30677.3805 -278.7605 -215.5620
ENERGY: 900000 4.9455 4.6764 2.2653 0.0000 -10712.0463 1540.0860 0.0000 0.0000 1752.5586 -7407.5145 300.2307 -9160.0732 -7448.6231 301.1741 848.7973 950.3855 30192.8229 -172.7918 -107.7349
ENERGY: 1200000 2.5793 1.8460 2.6166 0.0000 -10723.7253 1417.2832 0.0000 0.0000 1784.5766 -7514.8236 305.7157 -9299.4001 -7458.7812 301.1154 -259.9073 -150.9039 29964.4420 -151.0856 -82.0544
ENERGY: 1500000 1.7225 5.0973 0.8155 0.0000 -10580.8683 1434.0440 0.0000 0.0000 1813.8836 -7325.3052 310.7363 -9139.1889 -7450.2535 300.8545 172.0177 277.1495 30189.9219 -148.3258 -79.1948
TCL: Running FEP window  20: Lambda1 0.9500000000000003 Lambda2 1.0    [dLambda 0.04999999999999971]
TCL: Setting parameter firsttimestep to 0
TCL: Setting parameter alchLambda to 0.9500000000000003
Info: NONBONDED TABLE R-SQUARED SPACING: 0.0625
Info: NONBONDED TABLE SIZE: 705 POINTS
TCL: Setting parameter alchLambda2 to 1.0
Info: NONBONDED TABLE R-SQUARED SPACING: 0.0625
Info: NONBONDED TABLE SIZE: 705 POINTS
TCL: Running for 1500000 steps
ETITLE: TS BOND ANGLE DIHED IMPRP ELECT VDW BOUNDARY MISC KINETIC TOTAL TEMP POTENTIAL TOTALAVG TEMPAVG PRESSURE GPRESSURE VOLUME PRESSAVG GPRESSAVG
ENERGY: 0 1.7225 5.0973 0.8155 0.0000 -10581.3248 1434.3027 0.0000 0.0000 1813.0048 -7326.3819 310.5857 -9139.3867 -7326.3819 310.5857 206.0774 296.0006 30189.9219 206.0774 296.0006
ENERGY: 300000 2.3175 1.3334 2.8017 0.0000 -10507.1033 1374.9370 0.0000 0.0000 1700.1798 -7425.5339 291.2577 -9125.7137 -7414.4115 299.7332 -425.9737 -343.1965 30803.8627 -140.8333 -69.9380
ENERGY: 600000 1.2913 2.2823 2.8936 0.0000 -10738.8804 1458.9695 0.0000 0.0000 1805.0804 -7468.3632 309.2282 -9273.4436 -7447.0936 299.6003 397.2910 409.8285 29512.9634 -71.5478 -17.2204
ENERGY: 900000 3.2807 1.3427 1.9868 0.0000 -10729.0412 1400.9849 0.0000 0.0000 1698.5563 -7622.8898 290.9795 -9321.4461 -7474.6704 298.0547 -595.8077 -544.8743 29926.2416 -117.0273 -62.6541
ENERGY: 1200000 1.7559 2.7376 1.5787 0.0000 -10623.7549 1390.2994 0.0000 0.0000 1756.8621 -7470.5212 300.9679 -9227.3833 -7470.5462 299.4893 -211.1213 -147.1509 29710.4731 -155.9869 -97.7048
ENERGY: 1500000 1.3338 2.0208 2.6416 0.0000 -10651.8126 1456.4871 0.0000 0.0000 1736.7788 -7452.5504 297.5274 -9189.3292 -7466.2837 299.6963 173.5572 252.0737 30203.8318 -101.4118 -41.8532
TCL: Exiting due to exit command.
