Info: SIMULATION PARAMETERS:
Info: TIMESTEP               2
Info: NUMBER OF STEPS        0
Info: STEPS PER CYCLE        10
Info: PERIODIC CELL BASIS 1  41.545 0 0
Info: PERIODIC CELL BASIS 2  0 40.343 0
Info: PERIODIC CELL BASIS 3  0 0 43.754
Info: PERIODIC CELL CENTER   0 0 0
Info: WRAPPING WATERS AROUND PERIODIC BOUNDARIES ON OUTPUT.
Info: WRAPPING ALL CLUSTERS AROUND PERIODIC BOUNDARIES ON OUTPUT.
Info: FIRST LDB TIMESTEP     50
Info: LAST LDB TIMESTEP     -1
Info: HOM BACKGROUND SCALING 1
Info: PME BACKGROUND SCALING 1
Info: MIN ATOMS PER PATCH    40
Info: EMPTY PATCH LOAD       40 ATOMS
Info: INITIAL TEMPERATURE    300
Info: CENTER OF MASS MOVING INITIALLY? NO
Info: DIELECTRIC             1
Info: EXCLUDE                SCALED ONE-FOUR
Info: 1-4 ELECTROSTATICS SCALED BY 0.833333
Info: MODIFIED 1-4 VDW PARAMETERS WILL BE USED
Info: DCD FILENAME           mobley_2913224_min.dcd
Info: DCD FREQUENCY          5000
Info: DCD FIRST STEP         5000
Info: DCD FILE WILL CONTAIN UNIT CELL DATA
Info: XST FILENAME           mobley_2913224_min.xst
Info: XST FREQUENCY          5000
Info: NO VELOCITY DCD OUTPUT
Info: NO FORCE DCD OUTPUT
Info: OUTPUT FILENAME        mobley_2913224_min
Info: BINARY OUTPUT FILES WILL BE USED
Info: RESTART FILENAME       mobley_2913224_min.restart
Info: RESTART FREQUENCY      5000
Info: BINARY RESTART FILES WILL BE USED
Info: CUTOFF                 9
Info: PAIRLIST DISTANCE      11
Info: PAIRLIST SHRINK RATE   0.01
Info: PAIRLIST GROW RATE     0.01
Info: PAIRLIST TRIGGER       0.3
Info: PAIRLISTS PER CYCLE    2
Info: PAIRLISTS ENABLED
Info: MARGIN                 8
Info: HYDROGEN GROUP CUTOFF  2.5
Info: PATCH DIMENSION        21.5
Info: ENERGY OUTPUT STEPS    5000
Info: ENERGY EVALUATION STEPS    5000
Info: OUTPUT ENERGY PRECISION 4
Info: CROSSTERM ENERGY INCLUDED IN DIHEDRAL
Info: TIMING OUTPUT STEPS    50000
Info: PRESSURE OUTPUT STEPS  5000
Info: LANGEVIN DYNAMICS ACTIVE
Info: LANGEVIN TEMPERATURE   300
Info: LANGEVIN USING BBK INTEGRATOR
Info: LANGEVIN DAMPING COEFFICIENT IS 1 INVERSE PS
Info: LANGEVIN DYNAMICS APPLIED TO HYDROGENS
Info: LANGEVIN PISTON PRESSURE CONTROL ACTIVE
Info:        TARGET PRESSURE IS 1.01325 BAR
Info:     OSCILLATION PERIOD IS 50 FS
Info:             DECAY TIME IS 25 FS
Info:     PISTON TEMPERATURE IS 300 K
Info:       PRESSURE CONTROL IS GROUP-BASED
Info:    INITIAL STRAIN RATE IS 0 0 0
Info:       CELL FLUCTUATION IS ISOTROPIC
Info: PARTICLE MESH EWALD (PME) ACTIVE
Info: PME TOLERANCE               1e-06
Info: PME EWALD COEFFICIENT       0.348832
Info: PME INTERPOLATION ORDER     4
Info: PME GRID DIMENSIONS         44 44 44
Info: PME MAXIMUM GRID SPACING    1
Info: FULL ELECTROSTATIC EVALUATION FREQUENCY      2
Info: USING VERLET I (r-RESPA) MTS SCHEME.
Info: C1 SPLITTING OF LONG RANGE ELECTROSTATICS
Info: PLACING ATOMS IN PATCHES BY HYDROGEN GROUPS
Info: RIGID BONDS TO HYDROGEN : ALL
Info:         ERROR TOLERANCE : 1e-08
Info:          MAX ITERATIONS : 100
Info: RIGID WATER USING SETTLE ALGORITHM
Info: RANDOM NUMBER SEED     1741323385
Info: USE HYDROGEN BONDS?    NO
Info: Using AMBER format force field!
Info: AMBER PARM FILE        mobley_2913224.prmtop
Info: COORDINATE PDB         mobley_2913224.pdb
Info: Exclusions will be read from PARM file!
Info: SCNB (VDW SCALING)     2
Info: USING ARITHMETIC MEAN TO COMBINE L-J SIGMA PARAMETERS
Info: SUMMARY OF PARAMETERS:
Info: 12 BONDS
Info: 14 ANGLES
Info:   14 HARMONIC
Info:   0 COSINE-BASED
Info: 15 DIHEDRAL
Info: 0 IMPROPER
Info: 0 CROSSTERM
Info: 0 VDW
Info: 55 VDW_PAIRS
Info: 0 NBTHOLE_PAIRS
Info: STRUCTURE SUMMARY:
Info: 5346 ATOMS
Info: 5346 BONDS
Info: 32 ANGLES
Info: 52 DIHEDRALS
Info: 0 IMPROPERS
Info: 0 CROSSTERMS
Info: 5415 EXCLUSIONS
Info: 5333 RIGID BONDS
Info: 10705 DEGREES OF FREEDOM
Info: 1788 HYDROGEN GROUPS
Info: 4 ATOMS IN LARGEST HYDROGEN GROUP
Info: 1788 MIGRATION GROUPS
Info: 4 ATOMS IN LARGEST MIGRATION GROUP
Info: TOTAL MASS = 32158.6 amu
Info: TOTAL CHARGE = 9.99421e-05 e
Info: MASS DENSITY = 0.728201 g/cm^3
Info: ATOM DENSITY = 0.0728994 atoms/A^3
Info: ADDED 0 IMPLICIT EXCLUSIONS
Info: NONBONDED TABLE R-SQUARED SPACING: 0.0625
Info: NONBONDED TABLE SIZE: 705 POINTS
Info: REMOVING COM VELOCITY -0.00998533 0.0760896 0.025691
TCL: Minimizing for 2000 steps
ETITLE: TS BOND ANGLE DIHED IMPRP ELECT VDW BOUNDARY MISC KINETIC TOTAL TEMP POTENTIAL TOTAL3 TEMPAVG PRESSURE GPRESSURE VOLUME PRESSAVG GPRESSAVG
ENERGY: 0 0.9795 3.9356 36.2026 0.0000 -16852.9812 1893.5846 0.0000 0.0000 0.0000 -14918.2789 0.0000 -14918.2789 -14918.2789 0.0000 11251.9317 -15863.7410 73333.8889 11251.9317 -15863.7410
ENERGY: 400 3.6455 4.5759 33.9112 0.0000 -22437.8647 3175.1613 0.0000 0.0000 0.0000 -19220.5709 0.0000 -19220.5709 -19220.5709 0.0000 15637.2845 9663.9069 73333.8889 15637.2845 9663.9069
ENERGY: 800 1.5535 3.5650 33.1630 0.0000 -23754.0354 3884.2764 0.0000 0.0000 0.0000 -19831.4774 0.0000 -19831.4774 -19831.4774 0.0000 18643.6620 12377.4753 73333.8889 18643.6620 12377.4753
ENERGY: 1200 1.0539 3.0810 33.5905 0.0000 -24192.4660 4042.9125 0.0000 0.0000 0.0000 -20111.8281 0.0000 -20111.8281 -20111.8281 0.0000 19379.1359 13021.8410 73333.8889 19379.1359 13021.8410
ENERGY: 1600 0.7821 2.5438 33.3160 0.0000 -24424.2184 4152.7316 0.0000 0.0000 0.0000 -20234.8449 0.0000 -20234.8449 -20234.8449 0.0000 19854.2248 13384.0133 73333.8889 19854.2248 13384.0133
ENERGY: 2000 0.6764 2.7254 32.8550 0.0000 -24564.6270 4221.6293 0.0000 0.0000 0.0000 -20306.7409 0.0000 -20306.7409 -20306.7409 0.0000 20187.5225 13611.8944 73333.8889 20187.5225 13611.8944
TCL: Exiting due to exit command.
Info: NAMD 3.0.1 for Linux-x86_64-multicore
Info: Please visit http://www.ks.uiuc.edu/Research/namd/
Info: for updates, documentation, and support information.
Info: Please cite Phillips et al., J. Chem. Phys. 153:044130 (2020) doi:10.1063/5.0014475
Info: in all publications reporting results obtained with NAMD.
Info: Based on Charm++/Converse 80000 for multicore-linux-x86_64-gcc
Info: Built Mon Oct 14 11:11:06 CDT 2024 by dhardy on athine.ks.uiuc.edu
Info: 1 NAMD  3.0.1  Linux-x86_64-multicore  16    k141  z5358697
Info: Running on 16 processors, 1 nodes, 1 physical nodes.
Info: CPU topology information available.
Info: Charm++/Converse parallel runtime startup completed at 0.00308841 s
Info: 1043.63 MB of memory in use based on /proc/self/stat
Info: Configuration file is mobley_2913224_equil.namd
Info: Working in the current directory /srv/scratch/z5358697/prod_prep_3/2913224
TCL: Running 25000 steps at 30 kelvin.
TCL: Suspending until startup complete.
Info: SIMULATION PARAMETERS:
Info: TIMESTEP               2
Info: NUMBER OF STEPS        0
Info: STEPS PER CYCLE        10
Info: PERIODIC CELL BASIS 1  41.545 0 0
Info: PERIODIC CELL BASIS 2  0 40.343 0
Info: PERIODIC CELL BASIS 3  0 0 43.754
Info: PERIODIC CELL CENTER   0 0 0
Info: WRAPPING WATERS AROUND PERIODIC BOUNDARIES ON OUTPUT.
Info: WRAPPING ALL CLUSTERS AROUND PERIODIC BOUNDARIES ON OUTPUT.
Info: FIRST LDB TIMESTEP     50
Info: LAST LDB TIMESTEP     -1
Info: HOM BACKGROUND SCALING 1
Info: PME BACKGROUND SCALING 1
Info: MIN ATOMS PER PATCH    40
Info: EMPTY PATCH LOAD       40 ATOMS
Info: INITIAL TEMPERATURE    300
Info: CENTER OF MASS MOVING INITIALLY? NO
Info: DIELECTRIC             1
Info: EXCLUDE                SCALED ONE-FOUR
Info: 1-4 ELECTROSTATICS SCALED BY 0.833333
Info: MODIFIED 1-4 VDW PARAMETERS WILL BE USED
Info: DCD FILENAME           mobley_2913224_equil.dcd
Info: DCD FREQUENCY          5000
Info: DCD FIRST STEP         5000
Info: DCD FILE WILL CONTAIN UNIT CELL DATA
Info: XST FILENAME           mobley_2913224_equil.xst
Info: XST FREQUENCY          5000
Info: NO VELOCITY DCD OUTPUT
Info: NO FORCE DCD OUTPUT
Info: OUTPUT FILENAME        mobley_2913224_equil
Info: BINARY OUTPUT FILES WILL BE USED
Info: RESTART FILENAME       mobley_2913224_equil.restart
Info: RESTART FREQUENCY      5000
Info: BINARY RESTART FILES WILL BE USED
Info: CUTOFF                 9
Info: PAIRLIST DISTANCE      11
Info: PAIRLIST SHRINK RATE   0.01
Info: PAIRLIST GROW RATE     0.01
Info: PAIRLIST TRIGGER       0.3
Info: PAIRLISTS PER CYCLE    2
Info: PAIRLISTS ENABLED
Info: MARGIN                 8
Info: HYDROGEN GROUP CUTOFF  2.5
Info: PATCH DIMENSION        21.5
Info: ENERGY OUTPUT STEPS    5000
Info: ENERGY EVALUATION STEPS    5000
Info: OUTPUT ENERGY PRECISION 4
Info: CROSSTERM ENERGY INCLUDED IN DIHEDRAL
Info: TIMING OUTPUT STEPS    50000
Info: PRESSURE OUTPUT STEPS  5000
Info: LANGEVIN DYNAMICS ACTIVE
Info: LANGEVIN TEMPERATURE   30
Info: LANGEVIN USING BBK INTEGRATOR
Info: LANGEVIN DAMPING COEFFICIENT IS 1 INVERSE PS
Info: LANGEVIN DYNAMICS APPLIED TO HYDROGENS
Info: LANGEVIN PISTON PRESSURE CONTROL ACTIVE
Info:        TARGET PRESSURE IS 1.01325 BAR
Info:     OSCILLATION PERIOD IS 50 FS
Info:             DECAY TIME IS 25 FS
Info:     PISTON TEMPERATURE IS 300 K
Info:       PRESSURE CONTROL IS GROUP-BASED
Info:    INITIAL STRAIN RATE IS 0 0 0
Info:       CELL FLUCTUATION IS ISOTROPIC
Info: PARTICLE MESH EWALD (PME) ACTIVE
Info: PME TOLERANCE               1e-06
Info: PME EWALD COEFFICIENT       0.348832
Info: PME INTERPOLATION ORDER     4
Info: PME GRID DIMENSIONS         44 44 44
Info: PME MAXIMUM GRID SPACING    1
Info: FULL ELECTROSTATIC EVALUATION FREQUENCY      2
Info: USING VERLET I (r-RESPA) MTS SCHEME.
Info: C1 SPLITTING OF LONG RANGE ELECTROSTATICS
Info: PLACING ATOMS IN PATCHES BY HYDROGEN GROUPS
Info: RIGID BONDS TO HYDROGEN : ALL
Info:         ERROR TOLERANCE : 1e-08
Info:          MAX ITERATIONS : 100
Info: RIGID WATER USING SETTLE ALGORITHM
Info: RANDOM NUMBER SEED     1741323400
Info: USE HYDROGEN BONDS?    NO
Info: Using AMBER format force field!
Info: AMBER PARM FILE        mobley_2913224.prmtop
Info: COORDINATE PDB         mobley_2913224.pdb
Info: Exclusions will be read from PARM file!
Info: SCNB (VDW SCALING)     2
Info: USING ARITHMETIC MEAN TO COMBINE L-J SIGMA PARAMETERS
Info: BINARY COORDINATES     mobley_2913224_min.coor
Info: SUMMARY OF PARAMETERS:
Info: 12 BONDS
Info: 14 ANGLES
Info:   14 HARMONIC
Info:   0 COSINE-BASED
Info: 15 DIHEDRAL
Info: 0 IMPROPER
Info: 0 CROSSTERM
Info: 0 VDW
Info: 55 VDW_PAIRS
Info: 0 NBTHOLE_PAIRS
Info: STRUCTURE SUMMARY:
Info: 5346 ATOMS
Info: 5346 BONDS
Info: 32 ANGLES
Info: 52 DIHEDRALS
Info: 0 IMPROPERS
Info: 0 CROSSTERMS
Info: 5415 EXCLUSIONS
Info: 5333 RIGID BONDS
Info: 10705 DEGREES OF FREEDOM
Info: 1788 HYDROGEN GROUPS
Info: 4 ATOMS IN LARGEST HYDROGEN GROUP
Info: 1788 MIGRATION GROUPS
Info: 4 ATOMS IN LARGEST MIGRATION GROUP
Info: TOTAL MASS = 32158.6 amu
Info: TOTAL CHARGE = 9.99421e-05 e
Info: MASS DENSITY = 0.728201 g/cm^3
Info: ATOM DENSITY = 0.0728994 atoms/A^3
Info: ADDED 0 IMPLICIT EXCLUSIONS
Info: NONBONDED TABLE R-SQUARED SPACING: 0.0625
Info: NONBONDED TABLE SIZE: 705 POINTS
Info: REMOVING COM VELOCITY -0.146651 -0.0415691 -0.0883127
TCL: Running for 25000 steps
ETITLE: TS BOND ANGLE DIHED IMPRP ELECT VDW BOUNDARY MISC KINETIC TOTAL TEMP POTENTIAL TOTAL3 TEMPAVG PRESSURE GPRESSURE VOLUME PRESSAVG GPRESSAVG
ENERGY: 0 0.6764 2.7254 32.8550 0.0000 -24564.6270 4221.6293 0.0000 0.0000 3256.2999 -17050.4410 306.1457 -20306.7409 -17049.7781 306.1457 219.3172 261.3803 73333.8889 219.3172 261.3803
ENERGY: 5000 0.6811 2.1273 34.7825 0.0000 -25676.3803 4411.3606 0.0000 0.0000 324.2977 -20903.1310 30.4893 -21227.4286 -20902.3286 47.6003 97.0108 130.3393 51507.9759 3.7768 3.7661
ENERGY: 10000 0.5053 3.5891 33.2681 0.0000 -25615.3836 4324.5201 0.0000 0.0000 320.7701 -20932.7308 30.1577 -21253.5009 -20932.1312 30.2713 -412.7014 -380.7033 51756.1446 4.3801 4.5340
ENERGY: 15000 0.7885 2.7632 34.4667 0.0000 -25653.7250 4333.4324 0.0000 0.0000 310.5372 -20971.7369 29.1956 -21282.2741 -20970.7818 30.2550 -503.0520 -451.0568 51802.6140 8.1778 8.0744
ENERGY: 20000 0.8350 2.4756 35.0979 0.0000 -25699.6549 4366.3388 0.0000 0.0000 318.9118 -20975.9958 29.9829 -21294.9076 -20975.5937 30.1198 -360.0973 -301.4293 51562.2520 4.9951 5.1904
ENERGY: 25000 0.9872 2.3129 34.3400 0.0000 -25786.8408 4439.4556 0.0000 0.0000 314.5435 -20995.2015 29.5723 -21309.7450 -20994.4159 30.0156 42.7640 79.1487 51320.8240 7.0475 7.1008
TCL: Running 25000 steps at 60 kelvin.
TCL: Setting parameter langevinTemp to 60
TCL: Running for 25000 steps
ETITLE: TS BOND ANGLE DIHED IMPRP ELECT VDW BOUNDARY MISC KINETIC TOTAL TEMP POTENTIAL TOTAL3 TEMPAVG PRESSURE GPRESSURE VOLUME PRESSAVG GPRESSAVG
ENERGY: 25000 0.9872 2.3129 34.3400 0.0000 -25786.8408 4439.4556 0.0000 0.0000 314.3814 -20995.3636 29.5570 -21309.7450 -20994.6667 29.5570 29.5680 79.1143 51320.8240 29.5680 79.1143
ENERGY: 30000 2.1296 3.3888 34.1285 0.0000 -25154.0836 4111.0697 0.0000 0.0000 641.5822 -20361.7848 60.3193 -21003.3670 -20359.9345 56.9389 -962.5089 -895.3710 51919.6803 0.3228 0.3094
ENERGY: 35000 0.6258 3.7142 34.3049 0.0000 -25459.2484 4352.2523 0.0000 0.0000 638.1827 -20430.1686 59.9996 -21068.3512 -20428.2535 60.0001 159.8178 233.7449 51354.2984 -0.5695 -0.4690
ENERGY: 40000 1.6835 2.7550 34.8501 0.0000 -25304.3189 4184.2041 0.0000 0.0000 647.2591 -20433.5672 60.8530 -21080.8263 -20431.6759 60.0168 -696.7573 -646.7193 51741.5315 7.3896 7.5009
ENERGY: 45000 2.1423 3.4189 34.5021 0.0000 -25490.6042 4376.5424 0.0000 0.0000 631.8726 -20442.1259 59.4064 -21073.9985 -20440.5080 60.1009 265.8047 315.7307 51308.4072 1.3698 1.4579
ENERGY: 50000 0.4844 3.7568 33.6358 0.0000 -25472.2803 4315.6731 0.0000 0.0000 632.5508 -20486.1793 59.4702 -21118.7300 -20484.1726 59.9796 -69.6730 -13.8455 51256.0337 1.5767 1.7173
TCL: Running 25000 steps at 90 kelvin.
TCL: Setting parameter langevinTemp to 90
TCL: Running for 25000 steps
ETITLE: TS BOND ANGLE DIHED IMPRP ELECT VDW BOUNDARY MISC KINETIC TOTAL TEMP POTENTIAL TOTAL3 TEMPAVG PRESSURE GPRESSURE VOLUME PRESSAVG GPRESSAVG
ENERGY: 50000 0.4844 3.7568 33.6358 0.0000 -25472.2803 4315.6731 0.0000 0.0000 632.2351 -20486.4949 59.4405 -21118.7300 -20485.2318 59.4405 -76.1169 -13.7768 51256.0337 -76.1169 -13.7768
ENERGY: 55000 2.4059 3.0463 36.8051 0.0000 -24916.8403 4127.5501 0.0000 0.0000 937.1590 -19809.8738 88.1083 -20747.0328 -19807.9312 86.8695 -451.2637 -396.4870 52053.1227 3.7409 3.7455
ENERGY: 60000 1.5794 5.1575 33.7344 0.0000 -25043.1719 4179.8668 0.0000 0.0000 941.3014 -19881.5324 88.4978 -20822.8338 -19879.6479 90.4546 -127.1677 -58.9520 51836.1238 7.6889 7.6757
ENERGY: 65000 1.4295 3.5256 37.4182 0.0000 -25107.2812 4224.8669 0.0000 0.0000 944.0094 -19896.0315 88.7524 -20840.0409 -19893.5646 89.9594 -11.8380 74.7980 51642.7425 3.9457 3.8036
ENERGY: 70000 1.4944 4.6049 34.8849 0.0000 -25271.8805 4353.8192 0.0000 0.0000 939.1768 -19937.9003 88.2980 -20877.0771 -19936.1448 90.0079 489.3335 559.3570 51666.2470 4.9000 4.5493
ENERGY: 75000 1.1029 2.7621 36.1046 0.0000 -25148.6294 4171.3792 0.0000 0.0000 965.6256 -19971.6550 90.7847 -20937.2806 -19968.3017 90.3549 -349.3250 -297.5552 51635.8123 0.4550 0.6727
TCL: Running 25000 steps at 120 kelvin.
TCL: Setting parameter langevinTemp to 120
TCL: Running for 25000 steps
ETITLE: TS BOND ANGLE DIHED IMPRP ELECT VDW BOUNDARY MISC KINETIC TOTAL TEMP POTENTIAL TOTAL3 TEMPAVG PRESSURE GPRESSURE VOLUME PRESSAVG GPRESSAVG
ENERGY: 75000 1.1029 2.7621 36.1046 0.0000 -25148.6294 4171.3792 0.0000 0.0000 965.1316 -19972.1490 90.7382 -20937.2806 -19969.9659 90.7382 -349.7534 -297.1570 51635.8123 -349.7534 -297.1570
ENERGY: 80000 1.7777 3.6733 35.0525 0.0000 -24866.7070 4282.0606 0.0000 0.0000 1251.8480 -19292.2950 117.6943 -20544.1430 -19289.9995 116.6059 892.3992 1008.8170 51516.4226 7.0095 6.6736
ENERGY: 85000 2.0951 4.2113 33.2728 0.0000 -24820.0511 4182.3714 0.0000 0.0000 1281.5552 -19316.5454 120.4872 -20598.1006 -19314.2752 119.4951 329.8456 386.6194 51726.0726 7.8702 7.4419
ENERGY: 90000 1.6089 3.6088 35.7163 0.0000 -24678.7613 4041.1571 0.0000 0.0000 1294.7606 -19301.9096 121.7288 -20596.6702 -19298.2266 120.0891 -457.9231 -395.5986 52064.8469 4.9633 4.9947
ENERGY: 95000 2.4131 5.6648 35.7515 0.0000 -25042.3902 4393.9354 0.0000 0.0000 1275.0179 -19329.6075 119.8726 -20604.6254 -19326.5487 120.8864 1481.4818 1503.2205 51256.7094 2.3837 1.8946
ENERGY: 100000 1.5755 6.7611 36.4354 0.0000 -24910.5015 4209.2124 0.0000 0.0000 1260.7926 -19395.7245 118.5352 -20656.5171 -19391.4165 120.6978 241.7977 338.6327 51693.7374 5.9832 5.7828
TCL: Running 25000 steps at 150 kelvin.
TCL: Setting parameter langevinTemp to 150
TCL: Running for 25000 steps
ETITLE: TS BOND ANGLE DIHED IMPRP ELECT VDW BOUNDARY MISC KINETIC TOTAL TEMP POTENTIAL TOTAL3 TEMPAVG PRESSURE GPRESSURE VOLUME PRESSAVG GPRESSAVG
ENERGY: 100000 1.5755 6.7611 36.4354 0.0000 -24910.5015 4209.2124 0.0000 0.0000 1260.1614 -19396.3558 118.4759 -20656.5171 -19393.7998 118.4759 279.9857 339.7711 51693.7374 279.9857 339.7711
ENERGY: 105000 3.2082 8.2959 35.6484 0.0000 -24322.6275 4041.3058 0.0000 0.0000 1620.4102 -18613.7589 152.3452 -20234.1691 -18610.1629 146.9719 239.8972 299.7718 52032.5538 2.2328 2.2702
ENERGY: 110000 1.9189 3.7901 37.4123 0.0000 -24279.4875 3967.1172 0.0000 0.0000 1590.2172 -18679.0318 149.5065 -20269.2490 -18674.4598 150.3763 36.7936 110.8838 51879.4147 0.3118 0.1115
ENERGY: 115000 1.4215 3.3890 36.4407 0.0000 -24283.2536 3951.8090 0.0000 0.0000 1626.7682 -18663.4252 152.9429 -20290.1934 -18659.5257 150.8709 -118.7988 -83.2027 52334.2808 5.8272 5.6087
ENERGY: 120000 1.2318 7.6563 37.1486 0.0000 -24407.5846 4067.2485 0.0000 0.0000 1616.2577 -18678.0416 151.9548 -20294.2994 -18674.4266 151.1971 340.1889 380.4911 52078.7551 1.1865 0.8721
ENERGY: 125000 2.0120 5.9241 37.2269 0.0000 -24335.7764 3950.9310 0.0000 0.0000 1600.2703 -18739.4121 150.4517 -20339.6824 -18734.9143 150.0818 -323.3001 -256.8473 52203.2579 4.7608 5.0368
TCL: Running 50000 steps at 180 kelvin.
TCL: Setting parameter langevinTemp to 180
TCL: Running for 50000 steps
ETITLE: TS BOND ANGLE DIHED IMPRP ELECT VDW BOUNDARY MISC KINETIC TOTAL TEMP POTENTIAL TOTAL3 TEMPAVG PRESSURE GPRESSURE VOLUME PRESSAVG GPRESSAVG
ENERGY: 125000 2.0120 5.9241 37.2269 0.0000 -24335.7764 3950.9310 0.0000 0.0000 1599.4555 -18740.2269 150.3751 -20339.6824 -18736.8178 150.3751 -311.3942 -256.7095 52203.2579 -311.3942 -256.7095
ENERGY: 135000 2.2894 5.6439 34.0270 0.0000 -23746.1609 3820.4503 0.0000 0.0000 1921.9580 -17961.7923 180.6956 -19883.7503 -17956.4274 179.4869 82.1971 131.3575 52164.4932 1.8732 1.7343
ENERGY: 145000 2.6892 6.7515 36.7458 0.0000 -23845.5802 3913.0046 0.0000 0.0000 1910.8386 -17975.5504 179.6502 -19886.3890 -17971.8440 180.9452 498.0486 535.0361 52237.7114 6.0274 5.7273
ENERGY: 155000 2.0702 6.9524 35.3691 0.0000 -23758.3924 3854.2396 0.0000 0.0000 1890.9559 -17968.8051 177.7809 -19859.7611 -17963.8145 180.6081 390.0089 462.4029 51588.7547 3.2063 3.2253
ENERGY: 165000 1.6756 3.6393 36.8383 0.0000 -23655.4997 3699.4592 0.0000 0.0000 1896.6561 -18017.2312 178.3168 -19913.8873 -18012.8936 179.7426 -527.3480 -461.8045 52429.9068 3.5937 3.9326
ENERGY: 175000 5.0049 5.5289 35.6853 0.0000 -23795.0563 3852.4102 0.0000 0.0000 1937.2568 -17959.1702 182.1339 -19896.4270 -17954.4699 180.7737 22.1423 59.4464 52556.4437 5.6858 4.9953
TCL: Running 50000 steps at 210 kelvin.
TCL: Setting parameter langevinTemp to 210
TCL: Running for 50000 steps
ETITLE: TS BOND ANGLE DIHED IMPRP ELECT VDW BOUNDARY MISC KINETIC TOTAL TEMP POTENTIAL TOTAL3 TEMPAVG PRESSURE GPRESSURE VOLUME PRESSAVG GPRESSAVG
ENERGY: 175000 5.0049 5.5289 35.6853 0.0000 -23795.0563 3852.4102 0.0000 0.0000 1936.2906 -17960.1364 182.0431 -19896.4270 -17956.3086 182.0431 2.8155 58.6283 52556.4437 2.8155 58.6283
ENERGY: 185000 2.5341 7.7133 36.7137 0.0000 -22694.9222 3474.9625 0.0000 0.0000 2237.1364 -16935.8621 210.3276 -19172.9985 -16929.2028 209.5025 -195.8646 -148.0822 52934.9836 -2.2657 -2.6974
ENERGY: 195000 4.6957 5.4911 33.8762 0.0000 -22662.7828 3536.3703 0.0000 0.0000 2222.1178 -16860.2317 208.9156 -19082.3496 -16853.8013 210.2750 -34.2419 96.0645 53221.8383 5.4793 5.5250
ENERGY: 205000 2.9836 8.7778 35.7300 0.0000 -22451.2963 3420.2997 0.0000 0.0000 2196.6702 -16786.8349 206.5231 -18983.5051 -16779.7666 210.4293 31.0960 96.7955 52229.3520 -0.6957 -1.0405
ENERGY: 215000 4.1274 5.1512 37.0879 0.0000 -22605.2411 3410.9861 0.0000 0.0000 2291.6722 -16856.2162 215.4548 -19147.8885 -16852.2662 209.9953 -477.1133 -420.2883 52690.3508 7.1442 7.0911
ENERGY: 225000 2.6712 3.8611 38.3712 0.0000 -22505.9245 3405.2917 0.0000 0.0000 2198.8288 -16856.9004 206.7260 -19055.7293 -16850.8923 209.4358 -80.6676 2.9682 52188.3279 1.6806 1.7017
TCL: Running 50000 steps at 240 kelvin.
TCL: Setting parameter langevinTemp to 240
TCL: Running for 50000 steps
ETITLE: TS BOND ANGLE DIHED IMPRP ELECT VDW BOUNDARY MISC KINETIC TOTAL TEMP POTENTIAL TOTAL3 TEMPAVG PRESSURE GPRESSURE VOLUME PRESSAVG GPRESSAVG
ENERGY: 225000 2.6712 3.8611 38.3712 0.0000 -22505.9245 3405.2917 0.0000 0.0000 2197.7239 -16858.0053 206.6221 -19055.7293 -16854.4575 206.6221 -80.1405 4.2500 52188.3279 -80.1405 4.2500
ENERGY: 235000 5.9367 6.0125 37.4227 0.0000 -21636.5575 3260.9028 0.0000 0.0000 2515.8373 -15810.4455 236.5300 -18326.2828 -15808.0095 239.4820 659.8782 700.9146 52429.8611 1.6321 1.1641
ENERGY: 245000 3.1166 12.9807 32.0187 0.0000 -21638.1000 3170.2192 0.0000 0.0000 2577.1125 -15842.6524 242.2909 -18419.7649 -15838.2044 238.8464 48.8207 95.3277 52804.7185 4.3554 4.2772
ENERGY: 255000 3.6664 4.6802 40.3357 0.0000 -21586.9752 3201.5741 0.0000 0.0000 2544.6317 -15792.0871 239.2372 -18336.7188 -15788.0089 239.6018 280.9688 370.1787 52810.1330 4.6930 5.1881
ENERGY: 265000 4.4275 5.7116 34.3237 0.0000 -21569.3859 3159.3072 0.0000 0.0000 2573.7452 -15791.8707 241.9743 -18365.6159 -15785.7647 241.6665 432.0625 545.8695 51732.8266 3.9492 4.1659
ENERGY: 275000 2.5643 4.1496 37.0547 0.0000 -21537.8983 3128.9775 0.0000 0.0000 2566.2750 -15798.8772 241.2720 -18365.1522 -15792.8157 241.1838 -233.2360 -129.3506 53036.6738 5.2596 4.6525
TCL: Running 50000 steps at 270 kelvin.
TCL: Setting parameter langevinTemp to 270
TCL: Running for 50000 steps
ETITLE: TS BOND ANGLE DIHED IMPRP ELECT VDW BOUNDARY MISC KINETIC TOTAL TEMP POTENTIAL TOTAL3 TEMPAVG PRESSURE GPRESSURE VOLUME PRESSAVG GPRESSAVG
ENERGY: 275000 2.5643 4.1496 37.0547 0.0000 -21537.8983 3128.9775 0.0000 0.0000 2565.0273 -15800.1249 241.1547 -18365.1522 -15796.2490 241.1547 -218.9845 -129.5305 53036.6738 -218.9845 -129.5305
ENERGY: 285000 3.8781 6.7268 39.1836 0.0000 -20492.0951 2906.5891 0.0000 0.0000 2823.0101 -14712.7075 265.4093 -17535.7176 -14708.3107 271.9496 147.4640 208.2365 54173.9174 7.2119 7.2666
ENERGY: 295000 2.8833 5.6613 38.8253 0.0000 -20316.9340 2778.9182 0.0000 0.0000 2855.6604 -14634.9854 268.4790 -17490.6458 -14630.6686 269.4733 -162.4748 -44.3176 53352.8168 3.8234 4.4695
ENERGY: 305000 4.2573 7.8712 35.9902 0.0000 -20307.2141 2761.0118 0.0000 0.0000 2826.3333 -14671.7503 265.7217 -17498.0836 -14664.6445 269.0023 -507.2884 -406.5201 54365.9076 0.9607 0.5634
ENERGY: 315000 3.9681 10.6151 35.5977 0.0000 -20252.4277 2626.5024 0.0000 0.0000 2867.6765 -14708.0678 269.6087 -17575.7443 -14702.6563 270.7981 -1058.2876 -933.7856 53825.4680 -1.4795 -0.9864
ENERGY: 325000 4.6882 8.9831 38.1931 0.0000 -20591.0361 2906.1844 0.0000 0.0000 2804.1047 -14828.8827 263.6319 -17632.9874 -14823.6795 268.9091 61.4745 108.3325 53461.5828 2.2585 2.6719
TCL: Running 1000000 steps at 300 kelvin.
TCL: Setting parameter langevinTemp to 300
TCL: Running for 1000000 steps
ETITLE: TS BOND ANGLE DIHED IMPRP ELECT VDW BOUNDARY MISC KINETIC TOTAL TEMP POTENTIAL TOTAL3 TEMPAVG PRESSURE GPRESSURE VOLUME PRESSAVG GPRESSAVG
ENERGY: 325000 4.6882 8.9831 38.1931 0.0000 -20591.0361 2906.1844 0.0000 0.0000 2802.6728 -14830.3146 263.4973 -17632.9874 -14825.6493 263.4973 28.5291 108.3026 53461.5828 28.5291 108.3026
ENERGY: 525000 3.2788 6.8781 42.3618 0.0000 -19569.5215 2715.2109 0.0000 0.0000 3172.3579 -13629.4341 298.2537 -16801.7920 -13623.6130 298.2153 331.1805 422.2385 55132.9986 -2.1748 -1.7503
ENERGY: 725000 2.4625 8.1893 37.5405 0.0000 -19418.1223 2572.1336 0.0000 0.0000 3209.3005 -13588.4959 301.7269 -16797.7965 -13584.7139 299.3828 -138.9177 -41.8944 54939.9811 3.4054 3.2874
ENERGY: 925000 4.4543 4.4126 39.3166 0.0000 -19514.6499 2538.5221 0.0000 0.0000 3250.4075 -13677.5368 305.5917 -16927.9443 -13671.1892 298.1316 -320.8173 -223.9787 54468.2002 7.8470 7.6665
ENERGY: 1125000 5.8547 3.7159 38.3220 0.0000 -19458.3251 2668.8579 0.0000 0.0000 3227.3977 -13514.1769 303.4284 -16741.5747 -13503.9324 300.9861 484.4146 574.2217 54520.3451 0.1946 0.2655
ENERGY: 1325000 4.0326 8.2861 38.2711 0.0000 -19473.9134 2592.1607 0.0000 0.0000 3189.6886 -13641.4743 299.8831 -16831.1629 -13636.9578 299.6109 -257.1448 -184.4647 55334.0996 3.2519 3.6868
TCL: Exiting due to exit command.
