Info: SIMULATION PARAMETERS:
Info: TIMESTEP               2
Info: NUMBER OF STEPS        0
Info: STEPS PER CYCLE        10
Info: PERIODIC CELL BASIS 1  44.675 0 0
Info: PERIODIC CELL BASIS 2  0 45.083 0
Info: PERIODIC CELL BASIS 3  0 0 39.119
Info: PERIODIC CELL CENTER   0 0 0
Info: WRAPPING WATERS AROUND PERIODIC BOUNDARIES ON OUTPUT.
Info: WRAPPING ALL CLUSTERS AROUND PERIODIC BOUNDARIES ON OUTPUT.
Info: FIRST LDB TIMESTEP     50
Info: LAST LDB TIMESTEP     -1
Info: HOM BACKGROUND SCALING 1
Info: PME BACKGROUND SCALING 1
Info: MIN ATOMS PER PATCH    40
Info: EMPTY PATCH LOAD       40 ATOMS
Info: INITIAL TEMPERATURE    300
Info: CENTER OF MASS MOVING INITIALLY? NO
Info: DIELECTRIC             1
Info: EXCLUDE                SCALED ONE-FOUR
Info: 1-4 ELECTROSTATICS SCALED BY 0.833333
Info: MODIFIED 1-4 VDW PARAMETERS WILL BE USED
Info: DCD FILENAME           mobley_1469079_min.dcd
Info: DCD FREQUENCY          5000
Info: DCD FIRST STEP         5000
Info: DCD FILE WILL CONTAIN UNIT CELL DATA
Info: XST FILENAME           mobley_1469079_min.xst
Info: XST FREQUENCY          5000
Info: NO VELOCITY DCD OUTPUT
Info: NO FORCE DCD OUTPUT
Info: OUTPUT FILENAME        mobley_1469079_min
Info: BINARY OUTPUT FILES WILL BE USED
Info: RESTART FILENAME       mobley_1469079_min.restart
Info: RESTART FREQUENCY      5000
Info: BINARY RESTART FILES WILL BE USED
Info: CUTOFF                 9
Info: PAIRLIST DISTANCE      11
Info: PAIRLIST SHRINK RATE   0.01
Info: PAIRLIST GROW RATE     0.01
Info: PAIRLIST TRIGGER       0.3
Info: PAIRLISTS PER CYCLE    2
Info: PAIRLISTS ENABLED
Info: MARGIN                 8
Info: HYDROGEN GROUP CUTOFF  2.5
Info: PATCH DIMENSION        21.5
Info: ENERGY OUTPUT STEPS    5000
Info: ENERGY EVALUATION STEPS    5000
Info: OUTPUT ENERGY PRECISION 4
Info: CROSSTERM ENERGY INCLUDED IN DIHEDRAL
Info: TIMING OUTPUT STEPS    50000
Info: PRESSURE OUTPUT STEPS  5000
Info: LANGEVIN DYNAMICS ACTIVE
Info: LANGEVIN TEMPERATURE   300
Info: LANGEVIN USING BBK INTEGRATOR
Info: LANGEVIN DAMPING COEFFICIENT IS 1 INVERSE PS
Info: LANGEVIN DYNAMICS APPLIED TO HYDROGENS
Info: LANGEVIN PISTON PRESSURE CONTROL ACTIVE
Info:        TARGET PRESSURE IS 1.01325 BAR
Info:     OSCILLATION PERIOD IS 50 FS
Info:             DECAY TIME IS 25 FS
Info:     PISTON TEMPERATURE IS 300 K
Info:       PRESSURE CONTROL IS GROUP-BASED
Info:    INITIAL STRAIN RATE IS 0 0 0
Info:       CELL FLUCTUATION IS ISOTROPIC
Info: PARTICLE MESH EWALD (PME) ACTIVE
Info: PME TOLERANCE               1e-06
Info: PME EWALD COEFFICIENT       0.348832
Info: PME INTERPOLATION ORDER     4
Info: PME GRID DIMENSIONS         48 48 40
Info: PME MAXIMUM GRID SPACING    1
Info: FULL ELECTROSTATIC EVALUATION FREQUENCY      2
Info: USING VERLET I (r-RESPA) MTS SCHEME.
Info: C1 SPLITTING OF LONG RANGE ELECTROSTATICS
Info: PLACING ATOMS IN PATCHES BY HYDROGEN GROUPS
Info: RIGID BONDS TO HYDROGEN : ALL
Info:         ERROR TOLERANCE : 1e-08
Info:          MAX ITERATIONS : 100
Info: RIGID WATER USING SETTLE ALGORITHM
Info: RANDOM NUMBER SEED     1741311388
Info: USE HYDROGEN BONDS?    NO
Info: Using AMBER format force field!
Info: AMBER PARM FILE        mobley_1469079.prmtop
Info: COORDINATE PDB         mobley_1469079.pdb
Info: Exclusions will be read from PARM file!
Info: SCNB (VDW SCALING)     2
Info: USING ARITHMETIC MEAN TO COMBINE L-J SIGMA PARAMETERS
Info: SUMMARY OF PARAMETERS:
Info: 6 BONDS
Info: 5 ANGLES
Info:   5 HARMONIC
Info:   0 COSINE-BASED
Info: 3 DIHEDRAL
Info: 0 IMPROPER
Info: 0 CROSSTERM
Info: 0 VDW
Info: 21 VDW_PAIRS
Info: 0 NBTHOLE_PAIRS
Info: STRUCTURE SUMMARY:
Info: 5707 ATOMS
Info: 5709 BONDS
Info: 38 ANGLES
Info: 64 DIHEDRALS
Info: 0 IMPROPERS
Info: 0 CROSSTERMS
Info: 5794 EXCLUSIONS
Info: 5691 RIGID BONDS
Info: 11430 DEGREES OF FREEDOM
Info: 1911 HYDROGEN GROUPS
Info: 3 ATOMS IN LARGEST HYDROGEN GROUP
Info: 1911 MIGRATION GROUPS
Info: 3 ATOMS IN LARGEST MIGRATION GROUP
Info: TOTAL MASS = 34393.4 amu
Info: TOTAL CHARGE = 0.000100005 e
Info: MASS DENSITY = 0.724885 g/cm^3
Info: ATOM DENSITY = 0.072434 atoms/A^3
Info: ADDED 0 IMPLICIT EXCLUSIONS
Info: NONBONDED TABLE R-SQUARED SPACING: 0.0625
Info: NONBONDED TABLE SIZE: 705 POINTS
Info: REMOVING COM VELOCITY -0.0629452 -0.0139717 -0.012808
TCL: Minimizing for 2000 steps
ETITLE: TS BOND ANGLE DIHED IMPRP ELECT VDW BOUNDARY MISC KINETIC TOTAL TEMP POTENTIAL TOTAL3 TEMPAVG PRESSURE GPRESSURE VOLUME PRESSAVG GPRESSAVG
ENERGY: 0 0.3687 2.4517 0.0003 0.0000 -17598.6247 1974.2120 0.0000 0.0000 0.0000 -15621.5920 0.0000 -15621.5920 -15621.5920 0.0000 10979.5000 -15871.1817 78788.9139 10979.5000 -15871.1817
ENERGY: 400 2.8819 1.8140 0.4578 0.0000 -23642.3771 3359.6956 0.0000 0.0000 0.0000 -20277.5278 0.0000 -20277.5278 -20277.5278 0.0000 15332.3891 15484.3968 78788.9139 15332.3891 15484.3968
ENERGY: 800 5.5185 2.0850 0.0823 0.0000 -24959.4661 3996.0872 0.0000 0.0000 0.0000 -20955.6932 0.0000 -20955.6932 -20955.6932 0.0000 17792.5228 17934.4681 78788.9139 17792.5228 17934.4681
ENERGY: 1200 38.1769 17.9273 0.0874 0.0000 -25586.2041 4320.2435 0.0000 0.0000 0.0000 -21209.7691 0.0000 -21209.7691 -21209.7691 0.0000 19127.8052 19259.9684 78788.9139 19127.8052 19259.9684
ENERGY: 1600 0.7430 0.5721 0.2190 0.0000 -25817.8657 4387.5182 0.0000 0.0000 0.0000 -21428.8135 0.0000 -21428.8135 -21428.8135 0.0000 19465.8241 19583.9313 78788.9139 19465.8241 19583.9313
ENERGY: 2000 0.7492 0.3209 0.0431 0.0000 -26061.6764 4517.5242 0.0000 0.0000 0.0000 -21543.0390 0.0000 -21543.0390 -21543.0390 0.0000 20006.7943 20126.5346 78788.9139 20006.7943 20126.5346
TCL: Exiting due to exit command.
Info: NAMD 3.0.1 for Linux-x86_64-multicore
Info: Please visit http://www.ks.uiuc.edu/Research/namd/
Info: for updates, documentation, and support information.
Info: Please cite Phillips et al., J. Chem. Phys. 153:044130 (2020) doi:10.1063/5.0014475
Info: in all publications reporting results obtained with NAMD.
Info: Based on Charm++/Converse 80000 for multicore-linux-x86_64-gcc
Info: Built Mon Oct 14 11:11:06 CDT 2024 by dhardy on athine.ks.uiuc.edu
Info: 1 NAMD  3.0.1  Linux-x86_64-multicore  16    k062  z5358697
Info: Running on 16 processors, 1 nodes, 1 physical nodes.
Info: CPU topology information available.
Info: Charm++/Converse parallel runtime startup completed at 0.0104632 s
Info: 1043.46 MB of memory in use based on /proc/self/stat
Info: Configuration file is mobley_1469079_equil.namd
Info: Working in the current directory /srv/scratch/z5358697/prod_prep/1469079
TCL: Running 25000 steps at 30 kelvin.
TCL: Suspending until startup complete.
Info: SIMULATION PARAMETERS:
Info: TIMESTEP               2
Info: NUMBER OF STEPS        0
Info: STEPS PER CYCLE        10
Info: PERIODIC CELL BASIS 1  44.675 0 0
Info: PERIODIC CELL BASIS 2  0 45.083 0
Info: PERIODIC CELL BASIS 3  0 0 39.119
Info: PERIODIC CELL CENTER   0 0 0
Info: WRAPPING WATERS AROUND PERIODIC BOUNDARIES ON OUTPUT.
Info: WRAPPING ALL CLUSTERS AROUND PERIODIC BOUNDARIES ON OUTPUT.
Info: FIRST LDB TIMESTEP     50
Info: LAST LDB TIMESTEP     -1
Info: HOM BACKGROUND SCALING 1
Info: PME BACKGROUND SCALING 1
Info: MIN ATOMS PER PATCH    40
Info: EMPTY PATCH LOAD       40 ATOMS
Info: INITIAL TEMPERATURE    300
Info: CENTER OF MASS MOVING INITIALLY? NO
Info: DIELECTRIC             1
Info: EXCLUDE                SCALED ONE-FOUR
Info: 1-4 ELECTROSTATICS SCALED BY 0.833333
Info: MODIFIED 1-4 VDW PARAMETERS WILL BE USED
Info: DCD FILENAME           mobley_1469079_equil.dcd
Info: DCD FREQUENCY          5000
Info: DCD FIRST STEP         5000
Info: DCD FILE WILL CONTAIN UNIT CELL DATA
Info: XST FILENAME           mobley_1469079_equil.xst
Info: XST FREQUENCY          5000
Info: NO VELOCITY DCD OUTPUT
Info: NO FORCE DCD OUTPUT
Info: OUTPUT FILENAME        mobley_1469079_equil
Info: BINARY OUTPUT FILES WILL BE USED
Info: RESTART FILENAME       mobley_1469079_equil.restart
Info: RESTART FREQUENCY      5000
Info: BINARY RESTART FILES WILL BE USED
Info: CUTOFF                 9
Info: PAIRLIST DISTANCE      11
Info: PAIRLIST SHRINK RATE   0.01
Info: PAIRLIST GROW RATE     0.01
Info: PAIRLIST TRIGGER       0.3
Info: PAIRLISTS PER CYCLE    2
Info: PAIRLISTS ENABLED
Info: MARGIN                 8
Info: HYDROGEN GROUP CUTOFF  2.5
Info: PATCH DIMENSION        21.5
Info: ENERGY OUTPUT STEPS    5000
Info: ENERGY EVALUATION STEPS    5000
Info: OUTPUT ENERGY PRECISION 4
Info: CROSSTERM ENERGY INCLUDED IN DIHEDRAL
Info: TIMING OUTPUT STEPS    50000
Info: PRESSURE OUTPUT STEPS  5000
Info: LANGEVIN DYNAMICS ACTIVE
Info: LANGEVIN TEMPERATURE   30
Info: LANGEVIN USING BBK INTEGRATOR
Info: LANGEVIN DAMPING COEFFICIENT IS 1 INVERSE PS
Info: LANGEVIN DYNAMICS APPLIED TO HYDROGENS
Info: LANGEVIN PISTON PRESSURE CONTROL ACTIVE
Info:        TARGET PRESSURE IS 1.01325 BAR
Info:     OSCILLATION PERIOD IS 50 FS
Info:             DECAY TIME IS 25 FS
Info:     PISTON TEMPERATURE IS 300 K
Info:       PRESSURE CONTROL IS GROUP-BASED
Info:    INITIAL STRAIN RATE IS 0 0 0
Info:       CELL FLUCTUATION IS ISOTROPIC
Info: PARTICLE MESH EWALD (PME) ACTIVE
Info: PME TOLERANCE               1e-06
Info: PME EWALD COEFFICIENT       0.348832
Info: PME INTERPOLATION ORDER     4
Info: PME GRID DIMENSIONS         48 48 40
Info: PME MAXIMUM GRID SPACING    1
Info: FULL ELECTROSTATIC EVALUATION FREQUENCY      2
Info: USING VERLET I (r-RESPA) MTS SCHEME.
Info: C1 SPLITTING OF LONG RANGE ELECTROSTATICS
Info: PLACING ATOMS IN PATCHES BY HYDROGEN GROUPS
Info: RIGID BONDS TO HYDROGEN : ALL
Info:         ERROR TOLERANCE : 1e-08
Info:          MAX ITERATIONS : 100
Info: RIGID WATER USING SETTLE ALGORITHM
Info: RANDOM NUMBER SEED     1741311411
Info: USE HYDROGEN BONDS?    NO
Info: Using AMBER format force field!
Info: AMBER PARM FILE        mobley_1469079.prmtop
Info: COORDINATE PDB         mobley_1469079.pdb
Info: Exclusions will be read from PARM file!
Info: SCNB (VDW SCALING)     2
Info: USING ARITHMETIC MEAN TO COMBINE L-J SIGMA PARAMETERS
Info: BINARY COORDINATES     mobley_1469079_min.coor
Info: SUMMARY OF PARAMETERS:
Info: 6 BONDS
Info: 5 ANGLES
Info:   5 HARMONIC
Info:   0 COSINE-BASED
Info: 3 DIHEDRAL
Info: 0 IMPROPER
Info: 0 CROSSTERM
Info: 0 VDW
Info: 21 VDW_PAIRS
Info: 0 NBTHOLE_PAIRS
Info: STRUCTURE SUMMARY:
Info: 5707 ATOMS
Info: 5709 BONDS
Info: 38 ANGLES
Info: 64 DIHEDRALS
Info: 0 IMPROPERS
Info: 0 CROSSTERMS
Info: 5794 EXCLUSIONS
Info: 5691 RIGID BONDS
Info: 11430 DEGREES OF FREEDOM
Info: 1911 HYDROGEN GROUPS
Info: 3 ATOMS IN LARGEST HYDROGEN GROUP
Info: 1911 MIGRATION GROUPS
Info: 3 ATOMS IN LARGEST MIGRATION GROUP
Info: TOTAL MASS = 34393.4 amu
Info: TOTAL CHARGE = 0.000100005 e
Info: MASS DENSITY = 0.724885 g/cm^3
Info: ATOM DENSITY = 0.072434 atoms/A^3
Info: ADDED 0 IMPLICIT EXCLUSIONS
Info: NONBONDED TABLE R-SQUARED SPACING: 0.0625
Info: NONBONDED TABLE SIZE: 705 POINTS
Info: REMOVING COM VELOCITY 0.0629676 0.0229923 0.0391745
TCL: Running for 25000 steps
ETITLE: TS BOND ANGLE DIHED IMPRP ELECT VDW BOUNDARY MISC KINETIC TOTAL TEMP POTENTIAL TOTAL3 TEMPAVG PRESSURE GPRESSURE VOLUME PRESSAVG GPRESSAVG
ENERGY: 0 0.7492 0.3209 0.0431 0.0000 -26061.6764 4517.5242 0.0000 0.0000 3436.6726 -18106.3664 302.6093 -21543.0390 -18105.6333 302.6093 235.1589 270.6515 78788.9139 235.1589 270.6515
ENERGY: 5000 1.5231 0.5815 0.7997 0.0000 -27244.7205 4656.6330 0.0000 0.0000 342.1153 -22243.0678 30.1243 -22585.1832 -22242.0198 48.2179 -501.5510 -449.3292 56056.1357 0.0304 0.0851
ENERGY: 10000 0.6098 0.5943 0.9211 0.0000 -27410.0190 4770.4472 0.0000 0.0000 349.1070 -22288.3395 30.7399 -22637.4465 -22287.3114 30.2965 -54.3794 -7.3038 55770.6374 0.7576 0.5672
ENERGY: 15000 0.7848 0.6297 0.6386 0.0000 -27375.9821 4702.9545 0.0000 0.0000 344.5157 -22326.4587 30.3356 -22670.9744 -22325.5458 30.2620 -413.6465 -360.0628 55839.5165 5.5070 5.5108
ENERGY: 20000 1.0803 0.4834 0.6799 0.0000 -27433.4236 4748.2738 0.0000 0.0000 330.7023 -22352.2038 29.1193 -22682.9061 -22351.7155 29.8017 -206.1733 -146.4757 55678.3753 -2.9305 -2.9943
ENERGY: 25000 0.8466 0.7219 0.5399 0.0000 -27701.1448 5006.2918 0.0000 0.0000 340.5062 -22352.2385 29.9826 -22692.7447 -22351.3870 30.0689 916.5133 980.0664 55351.9905 0.1882 0.2561
TCL: Running 25000 steps at 60 kelvin.
TCL: Setting parameter langevinTemp to 60
TCL: Running for 25000 steps
ETITLE: TS BOND ANGLE DIHED IMPRP ELECT VDW BOUNDARY MISC KINETIC TOTAL TEMP POTENTIAL TOTAL3 TEMPAVG PRESSURE GPRESSURE VOLUME PRESSAVG GPRESSAVG
ENERGY: 25000 0.8466 0.7219 0.5399 0.0000 -27701.1448 5006.2918 0.0000 0.0000 340.3402 -22352.4046 29.9680 -22692.7447 -22351.7341 29.9680 923.4235 980.1441 55351.9905 923.4235 980.1441
ENERGY: 30000 0.7080 1.1716 1.2755 0.0000 -27098.0075 4699.6546 0.0000 0.0000 692.0043 -21703.1934 60.9331 -22395.1978 -21702.0071 57.3194 153.7184 210.3767 55795.6152 -1.3509 -1.5018
ENERGY: 35000 0.5924 1.6215 1.0323 0.0000 -27055.1131 4605.3695 0.0000 0.0000 669.0842 -21777.4131 58.9149 -22446.4973 -21776.2883 60.2523 -192.9884 -150.3073 55581.5765 0.0855 -0.2280
ENERGY: 40000 1.5112 0.8363 1.2801 0.0000 -27150.3188 4669.7353 0.0000 0.0000 685.1630 -21791.7928 60.3307 -22476.9559 -21790.1374 59.8912 136.4328 178.8907 55138.6163 3.8675 3.9594
ENERGY: 45000 2.3963 0.9968 1.5772 0.0000 -27215.0330 4680.2974 0.0000 0.0000 690.1343 -21839.6311 60.7684 -22529.7654 -21838.9267 60.1807 -67.7247 -1.3324 55154.0969 0.0010 -0.1006
ENERGY: 50000 2.7885 2.4464 1.5501 0.0000 -27132.4690 4586.9990 0.0000 0.0000 681.5795 -21857.1056 60.0151 -22538.6851 -21855.4040 60.0533 -549.7538 -476.9191 55380.7334 -0.5464 -0.7210
TCL: Running 25000 steps at 90 kelvin.
TCL: Setting parameter langevinTemp to 90
TCL: Running for 25000 steps
ETITLE: TS BOND ANGLE DIHED IMPRP ELECT VDW BOUNDARY MISC KINETIC TOTAL TEMP POTENTIAL TOTAL3 TEMPAVG PRESSURE GPRESSURE VOLUME PRESSAVG GPRESSAVG
ENERGY: 50000 2.7885 2.4464 1.5501 0.0000 -27132.4690 4586.9990 0.0000 0.0000 681.2303 -21857.4549 59.9844 -22538.6851 -21856.1150 59.9844 -527.0072 -476.8818 55380.7334 -527.0072 -476.8818
ENERGY: 55000 1.6220 1.3314 1.6103 0.0000 -26687.6562 4472.3920 0.0000 0.0000 1018.4765 -21192.2240 89.6799 -22210.7005 -21188.9501 86.7279 -325.4612 -263.2303 55648.5784 0.7964 0.7625
ENERGY: 60000 2.5457 1.5301 1.3720 0.0000 -27116.9404 4874.6483 0.0000 0.0000 1037.2695 -21199.5748 91.3347 -22236.8443 -21196.8495 90.3452 1423.2114 1453.7997 55058.0461 3.4848 3.4582
ENERGY: 65000 2.2133 1.5607 1.0410 0.0000 -26867.0651 4595.5461 0.0000 0.0000 1040.2403 -21226.4636 91.5963 -22266.7040 -21223.4510 90.5626 144.3571 191.1988 55438.9797 4.4568 4.3711
ENERGY: 70000 1.4261 1.3695 1.0221 0.0000 -26830.4451 4561.2503 0.0000 0.0000 1026.7968 -21238.5802 90.4125 -22265.3771 -21235.1586 90.5275 -69.0726 -3.0780 55529.1927 5.2878 5.2579
ENERGY: 75000 1.6820 1.8409 1.4002 0.0000 -26955.6620 4665.2089 0.0000 0.0000 1041.6257 -21243.9044 91.7183 -22285.5301 -21240.4122 89.9698 393.1572 457.9406 55340.9546 5.4076 5.0598
TCL: Running 25000 steps at 120 kelvin.
TCL: Setting parameter langevinTemp to 120
TCL: Running for 25000 steps
ETITLE: TS BOND ANGLE DIHED IMPRP ELECT VDW BOUNDARY MISC KINETIC TOTAL TEMP POTENTIAL TOTAL3 TEMPAVG PRESSURE GPRESSURE VOLUME PRESSAVG GPRESSAVG
ENERGY: 75000 1.6820 1.8409 1.4002 0.0000 -26955.6620 4665.2089 0.0000 0.0000 1041.1322 -21244.3978 91.6748 -22285.5301 -21242.1682 91.6748 399.5640 458.0509 55340.9546 399.5640 458.0509
ENERGY: 80000 2.7630 1.7205 2.9537 0.0000 -26383.9884 4487.9459 0.0000 0.0000 1361.6384 -20526.9669 119.8963 -21888.6053 -20524.3590 117.4933 308.2127 364.0695 55679.0054 0.4788 0.4601
ENERGY: 85000 2.0681 1.7127 2.3343 0.0000 -26346.1907 4377.1886 0.0000 0.0000 1363.1207 -20599.7662 120.0269 -21962.8869 -20594.7533 120.1136 -250.0029 -201.3229 55546.6846 3.8851 4.0421
ENERGY: 90000 2.7815 2.3640 1.1413 0.0000 -26249.1357 4247.7628 0.0000 0.0000 1353.9272 -20641.1589 119.2174 -21995.0861 -20637.9368 119.8737 -893.2708 -844.5917 56000.0082 -0.0753 -0.0666
ENERGY: 95000 3.1805 2.8959 1.5858 0.0000 -26274.8094 4262.7433 0.0000 0.0000 1357.3136 -20647.0904 119.5155 -22004.4040 -20642.3353 119.9795 -912.0472 -851.6780 55850.3951 1.9696 1.4410
ENERGY: 100000 4.1546 1.7066 2.5365 0.0000 -26373.3145 4364.2844 0.0000 0.0000 1353.1753 -20647.4571 119.1511 -22000.6325 -20644.4593 120.1251 -352.4020 -296.9851 55365.5656 2.5294 2.6472
TCL: Running 25000 steps at 150 kelvin.
TCL: Setting parameter langevinTemp to 150
TCL: Running for 25000 steps
ETITLE: TS BOND ANGLE DIHED IMPRP ELECT VDW BOUNDARY MISC KINETIC TOTAL TEMP POTENTIAL TOTAL3 TEMPAVG PRESSURE GPRESSURE VOLUME PRESSAVG GPRESSAVG
ENERGY: 100000 4.1546 1.7066 2.5365 0.0000 -26373.3145 4364.2844 0.0000 0.0000 1352.4872 -20648.1453 119.0906 -22000.6325 -20645.6164 119.0906 -340.6129 -297.1074 55365.5656 -340.6129 -297.1074
ENERGY: 105000 2.3984 2.9152 2.9613 0.0000 -25914.1585 4291.5828 0.0000 0.0000 1678.2331 -19936.0677 147.7735 -21614.3007 -19931.5831 145.4425 107.2622 166.0794 55776.7784 3.5337 3.8092
ENERGY: 110000 3.6437 4.7244 2.7142 0.0000 -25858.5439 4181.9998 0.0000 0.0000 1697.7985 -19967.6633 149.4963 -21665.4619 -19962.3525 150.4011 -560.2324 -511.8769 56035.2716 -0.1094 0.3693
ENERGY: 115000 3.7485 2.9263 1.9043 0.0000 -25951.8729 4301.2900 0.0000 0.0000 1717.4918 -19924.5120 151.2303 -21642.0038 -19920.5194 149.9540 125.9018 152.1234 55770.8641 -2.7400 -2.8068
ENERGY: 120000 4.0109 3.8419 3.0067 0.0000 -26025.2238 4325.7855 0.0000 0.0000 1699.4649 -19989.1139 149.6430 -21688.5788 -19986.0690 149.7771 127.8493 172.1583 55600.3193 3.1978 3.1881
ENERGY: 125000 2.8298 2.2810 2.1899 0.0000 -26004.4590 4302.3651 0.0000 0.0000 1700.4362 -19994.3569 149.7285 -21694.7931 -19988.8010 149.6701 5.5216 56.5678 55429.9455 2.3262 2.3812
TCL: Running 50000 steps at 180 kelvin.
TCL: Setting parameter langevinTemp to 180
TCL: Running for 50000 steps
ETITLE: TS BOND ANGLE DIHED IMPRP ELECT VDW BOUNDARY MISC KINETIC TOTAL TEMP POTENTIAL TOTAL3 TEMPAVG PRESSURE GPRESSURE VOLUME PRESSAVG GPRESSAVG
ENERGY: 125000 2.8298 2.2810 2.1899 0.0000 -26004.4590 4302.3651 0.0000 0.0000 1699.6025 -19995.1906 149.6551 -21694.7931 -19991.6897 149.6551 6.4768 56.6515 55429.9455 6.4768 56.6515
ENERGY: 135000 3.6962 3.0213 2.8182 0.0000 -25144.4301 3969.1379 0.0000 0.0000 2015.5685 -19150.1882 177.4768 -21165.7566 -19144.7041 180.2513 -384.1838 -337.9404 56173.6712 1.9748 2.3820
ENERGY: 145000 3.9893 4.2463 3.7310 0.0000 -25344.3208 4130.2983 0.0000 0.0000 2063.2956 -19138.7603 181.6794 -21202.0559 -19134.6849 179.9311 246.9074 286.8180 55869.8817 2.9149 2.8913
ENERGY: 155000 4.7247 4.5501 2.2803 0.0000 -25367.4901 4121.9668 0.0000 0.0000 2038.3652 -19195.6029 179.4842 -21233.9681 -19189.5232 179.9369 -17.7046 64.0916 55930.3999 3.8233 3.4856
ENERGY: 165000 5.9723 3.9398 3.5080 0.0000 -25457.1615 4209.6882 0.0000 0.0000 2064.4227 -19169.6306 181.7786 -21234.0533 -19165.6713 181.0098 368.1206 425.6929 56136.2494 2.3282 2.3585
ENERGY: 175000 2.8121 1.8591 2.4901 0.0000 -25439.4578 4139.0887 0.0000 0.0000 2055.0223 -19238.1855 180.9509 -21293.2079 -19234.5753 179.3129 160.9049 232.1200 55908.3093 3.0469 3.0576
TCL: Running 50000 steps at 210 kelvin.
TCL: Setting parameter langevinTemp to 210
TCL: Running for 50000 steps
ETITLE: TS BOND ANGLE DIHED IMPRP ELECT VDW BOUNDARY MISC KINETIC TOTAL TEMP POTENTIAL TOTAL3 TEMPAVG PRESSURE GPRESSURE VOLUME PRESSAVG GPRESSAVG
ENERGY: 175000 2.8121 1.8591 2.4901 0.0000 -25439.4578 4139.0887 0.0000 0.0000 2054.0177 -19239.1902 180.8624 -21293.2079 -19236.0730 180.8624 172.3948 232.5387 55908.3093 172.3948 232.5387
ENERGY: 185000 5.6337 3.6121 2.5852 0.0000 -24271.9579 3817.3163 0.0000 0.0000 2368.2233 -18074.5872 208.5292 -20442.8104 -18068.6156 209.5824 299.4407 372.2753 55898.5427 2.9997 2.7661
ENERGY: 195000 3.7420 4.5517 2.0805 0.0000 -24016.7660 3695.6785 0.0000 0.0000 2401.1115 -17909.6018 211.4251 -20310.7133 -17904.2179 211.6621 306.6396 387.4034 55570.0184 -3.3743 -3.3422
ENERGY: 205000 3.0592 2.8859 3.7304 0.0000 -23842.6109 3488.1131 0.0000 0.0000 2443.0291 -17901.7933 215.1160 -20344.8223 -17895.5753 210.0321 -706.3721 -654.0656 55647.1473 3.9838 4.1288
ENERGY: 215000 0.5705 4.3717 2.9203 0.0000 -24021.1402 3565.0389 0.0000 0.0000 2401.4812 -18046.7576 211.4576 -20448.2388 -18040.2612 208.5148 -762.9938 -701.8678 56500.1514 -0.6057 -0.2155
ENERGY: 225000 2.4925 5.1315 2.4292 0.0000 -23938.4515 3541.0659 0.0000 0.0000 2376.6729 -18010.6595 209.2732 -20387.3324 -18007.7458 211.1493 -778.4013 -662.3078 56147.1822 0.9074 1.5930
TCL: Running 50000 steps at 240 kelvin.
TCL: Setting parameter langevinTemp to 240
TCL: Running for 50000 steps
ETITLE: TS BOND ANGLE DIHED IMPRP ELECT VDW BOUNDARY MISC KINETIC TOTAL TEMP POTENTIAL TOTAL3 TEMPAVG PRESSURE GPRESSURE VOLUME PRESSAVG GPRESSAVG
ENERGY: 225000 2.4925 5.1315 2.4292 0.0000 -23938.4515 3541.0659 0.0000 0.0000 2375.4676 -18011.8648 209.1670 -20387.3324 -18006.5967 209.1670 -746.4356 -662.9629 56147.1822 -746.4356 -662.9629
ENERGY: 235000 4.2018 6.1434 2.6191 0.0000 -22879.0100 3365.8928 0.0000 0.0000 2728.9431 -16771.2099 240.2916 -19500.1530 -16764.9716 240.9997 257.8511 301.2492 55924.5870 5.6609 5.5438
ENERGY: 245000 4.0798 6.5325 5.4072 0.0000 -22838.4336 3327.3967 0.0000 0.0000 2710.8217 -16784.1958 238.6960 -19495.0174 -16779.9855 239.8085 202.5553 247.6667 55866.7243 5.6295 5.0980
ENERGY: 255000 5.3321 4.9696 4.9815 0.0000 -22828.0006 3343.3510 0.0000 0.0000 2735.7441 -16733.6222 240.8905 -19469.3664 -16726.0020 240.0866 129.3345 183.8598 56151.7755 1.5053 1.3342
ENERGY: 265000 4.0937 5.0676 4.7466 0.0000 -22783.7065 3353.7260 0.0000 0.0000 2726.2039 -16689.8688 240.0504 -19416.0727 -16682.9917 239.8834 415.4493 496.4516 55590.5549 3.8449 3.3726
ENERGY: 275000 4.7133 3.9817 6.2411 0.0000 -22822.8971 3352.2396 0.0000 0.0000 2707.0552 -16748.6663 238.3643 -19455.7215 -16745.0401 241.1607 198.4866 273.3181 56347.1206 1.4075 1.5730
TCL: Running 50000 steps at 270 kelvin.
TCL: Setting parameter langevinTemp to 270
TCL: Running for 50000 steps
ETITLE: TS BOND ANGLE DIHED IMPRP ELECT VDW BOUNDARY MISC KINETIC TOTAL TEMP POTENTIAL TOTAL3 TEMPAVG PRESSURE GPRESSURE VOLUME PRESSAVG GPRESSAVG
ENERGY: 275000 4.7133 3.9817 6.2411 0.0000 -22822.8971 3352.2396 0.0000 0.0000 2705.7276 -16749.9939 238.2474 -19455.7215 -16745.2297 238.2474 183.5728 272.4298 56347.1206 183.5728 272.4298
ENERGY: 285000 4.2755 3.0951 5.1831 0.0000 -21721.8077 3054.0333 0.0000 0.0000 3062.5413 -15592.6794 269.6660 -18655.2207 -15586.5344 268.7698 138.8750 176.4810 57380.4553 4.2624 3.9942
ENERGY: 295000 6.3945 9.1459 5.8833 0.0000 -21511.7110 2873.6402 0.0000 0.0000 3051.7275 -15564.9196 268.7138 -18616.6471 -15558.4293 270.1211 -759.6483 -693.1431 58137.2584 1.2130 1.5493
ENERGY: 305000 4.8254 7.6697 4.0097 0.0000 -21624.5379 3048.7477 0.0000 0.0000 3036.3255 -15522.9598 267.3576 -18559.2853 -15518.5594 271.0656 229.1160 367.9250 57254.7153 1.2760 0.6068
ENERGY: 315000 6.0282 5.5169 3.8618 0.0000 -21847.9062 3064.4070 0.0000 0.0000 2981.7784 -15786.3140 262.5545 -18768.0924 -15778.9407 268.3460 -115.1127 -16.8961 57286.5034 4.3399 4.2122
ENERGY: 325000 8.7657 6.9029 4.6112 0.0000 -21821.6577 3108.5234 0.0000 0.0000 3071.9887 -15620.8657 270.4978 -18692.8544 -15615.9354 269.7857 206.2643 329.3285 57401.8783 0.1414 0.1590
TCL: Running 1000000 steps at 300 kelvin.
TCL: Setting parameter langevinTemp to 300
TCL: Running for 1000000 steps
ETITLE: TS BOND ANGLE DIHED IMPRP ELECT VDW BOUNDARY MISC KINETIC TOTAL TEMP POTENTIAL TOTAL3 TEMPAVG PRESSURE GPRESSURE VOLUME PRESSAVG GPRESSAVG
ENERGY: 325000 8.7657 6.9029 4.6112 0.0000 -21821.6577 3108.5234 0.0000 0.0000 3070.4513 -15622.4031 270.3624 -18692.8544 -15618.5657 270.3624 240.9485 328.8426 57401.8783 240.9485 328.8426
ENERGY: 525000 4.2934 3.2503 5.5686 0.0000 -20835.6875 2788.5995 0.0000 0.0000 3359.8440 -14674.1317 295.8443 -18033.9757 -14664.4082 298.5355 -57.4717 -16.6573 58586.5413 0.6654 0.2125
ENERGY: 725000 9.0625 7.7049 6.1322 0.0000 -20560.4553 2671.8926 0.0000 0.0000 3360.5289 -14505.1343 295.9046 -17865.6631 -14504.5915 299.7771 -470.0870 -362.0915 59222.7276 -0.1181 0.3360
ENERGY: 925000 7.6162 5.2496 5.9059 0.0000 -20579.5071 2662.9740 0.0000 0.0000 3373.2344 -14524.5271 297.0234 -17897.7615 -14519.9734 298.7695 -612.2027 -498.9159 59382.4001 -3.2298 -3.0465
ENERGY: 1125000 7.2937 5.9699 5.5789 0.0000 -20615.8721 2753.0186 0.0000 0.0000 3443.6001 -14400.4110 303.2193 -17844.0111 -14394.3414 299.8626 -29.6046 -4.7974 58946.4229 3.8788 3.7280
ENERGY: 1325000 5.0887 3.4968 5.8150 0.0000 -20680.4375 2868.4321 0.0000 0.0000 3358.5320 -14439.0730 295.7288 -17797.6050 -14433.2611 296.9453 467.9390 594.0358 58651.0160 4.6312 4.7622
TCL: Exiting due to exit command.
