Info: SIMULATION PARAMETERS:
Info: TIMESTEP               2
Info: NUMBER OF STEPS        0
Info: STEPS PER CYCLE        10
Info: PERIODIC CELL BASIS 1  44.537 0 0
Info: PERIODIC CELL BASIS 2  0 41.432 0
Info: PERIODIC CELL BASIS 3  0 0 42.04
Info: PERIODIC CELL CENTER   0 0 0
Info: WRAPPING WATERS AROUND PERIODIC BOUNDARIES ON OUTPUT.
Info: WRAPPING ALL CLUSTERS AROUND PERIODIC BOUNDARIES ON OUTPUT.
Info: FIRST LDB TIMESTEP     50
Info: LAST LDB TIMESTEP     -1
Info: HOM BACKGROUND SCALING 1
Info: PME BACKGROUND SCALING 1
Info: MIN ATOMS PER PATCH    40
Info: EMPTY PATCH LOAD       40 ATOMS
Info: INITIAL TEMPERATURE    300
Info: CENTER OF MASS MOVING INITIALLY? NO
Info: DIELECTRIC             1
Info: EXCLUDE                SCALED ONE-FOUR
Info: 1-4 ELECTROSTATICS SCALED BY 0.833333
Info: MODIFIED 1-4 VDW PARAMETERS WILL BE USED
Info: DCD FILENAME           mobley_5003962_min.dcd
Info: DCD FREQUENCY          5000
Info: DCD FIRST STEP         5000
Info: DCD FILE WILL CONTAIN UNIT CELL DATA
Info: XST FILENAME           mobley_5003962_min.xst
Info: XST FREQUENCY          5000
Info: NO VELOCITY DCD OUTPUT
Info: NO FORCE DCD OUTPUT
Info: OUTPUT FILENAME        mobley_5003962_min
Info: BINARY OUTPUT FILES WILL BE USED
Info: RESTART FILENAME       mobley_5003962_min.restart
Info: RESTART FREQUENCY      5000
Info: BINARY RESTART FILES WILL BE USED
Info: CUTOFF                 9
Info: PAIRLIST DISTANCE      11
Info: PAIRLIST SHRINK RATE   0.01
Info: PAIRLIST GROW RATE     0.01
Info: PAIRLIST TRIGGER       0.3
Info: PAIRLISTS PER CYCLE    2
Info: PAIRLISTS ENABLED
Info: MARGIN                 8
Info: HYDROGEN GROUP CUTOFF  2.5
Info: PATCH DIMENSION        21.5
Info: ENERGY OUTPUT STEPS    5000
Info: ENERGY EVALUATION STEPS    5000
Info: OUTPUT ENERGY PRECISION 4
Info: CROSSTERM ENERGY INCLUDED IN DIHEDRAL
Info: TIMING OUTPUT STEPS    50000
Info: PRESSURE OUTPUT STEPS  5000
Info: LANGEVIN DYNAMICS ACTIVE
Info: LANGEVIN TEMPERATURE   300
Info: LANGEVIN USING BBK INTEGRATOR
Info: LANGEVIN DAMPING COEFFICIENT IS 1 INVERSE PS
Info: LANGEVIN DYNAMICS APPLIED TO HYDROGENS
Info: LANGEVIN PISTON PRESSURE CONTROL ACTIVE
Info:        TARGET PRESSURE IS 1.01325 BAR
Info:     OSCILLATION PERIOD IS 50 FS
Info:             DECAY TIME IS 25 FS
Info:     PISTON TEMPERATURE IS 300 K
Info:       PRESSURE CONTROL IS GROUP-BASED
Info:    INITIAL STRAIN RATE IS 0 0 0
Info:       CELL FLUCTUATION IS ISOTROPIC
Info: PARTICLE MESH EWALD (PME) ACTIVE
Info: PME TOLERANCE               1e-06
Info: PME EWALD COEFFICIENT       0.348832
Info: PME INTERPOLATION ORDER     4
Info: PME GRID DIMENSIONS         48 44 44
Info: PME MAXIMUM GRID SPACING    1
Info: FULL ELECTROSTATIC EVALUATION FREQUENCY      2
Info: USING VERLET I (r-RESPA) MTS SCHEME.
Info: C1 SPLITTING OF LONG RANGE ELECTROSTATICS
Info: PLACING ATOMS IN PATCHES BY HYDROGEN GROUPS
Info: RIGID BONDS TO HYDROGEN : ALL
Info:         ERROR TOLERANCE : 1e-08
Info:          MAX ITERATIONS : 100
Info: RIGID WATER USING SETTLE ALGORITHM
Info: RANDOM NUMBER SEED     1741346536
Info: USE HYDROGEN BONDS?    NO
Info: Using AMBER format force field!
Info: AMBER PARM FILE        mobley_5003962.prmtop
Info: COORDINATE PDB         mobley_5003962.pdb
Info: Exclusions will be read from PARM file!
Info: SCNB (VDW SCALING)     2
Info: USING ARITHMETIC MEAN TO COMBINE L-J SIGMA PARAMETERS
Info: SUMMARY OF PARAMETERS:
Info: 8 BONDS
Info: 8 ANGLES
Info:   8 HARMONIC
Info:   0 COSINE-BASED
Info: 6 DIHEDRAL
Info: 0 IMPROPER
Info: 0 CROSSTERM
Info: 0 VDW
Info: 28 VDW_PAIRS
Info: 0 NBTHOLE_PAIRS
Info: STRUCTURE SUMMARY:
Info: 5627 ATOMS
Info: 5629 BONDS
Info: 45 ANGLES
Info: 77 DIHEDRALS
Info: 0 IMPROPERS
Info: 0 CROSSTERMS
Info: 5733 EXCLUSIONS
Info: 5610 RIGID BONDS
Info: 11271 DEGREES OF FREEDOM
Info: 1884 HYDROGEN GROUPS
Info: 3 ATOMS IN LARGEST HYDROGEN GROUP
Info: 1884 MIGRATION GROUPS
Info: 3 ATOMS IN LARGEST MIGRATION GROUP
Info: TOTAL MASS = 33859.1 amu
Info: TOTAL CHARGE = 0.000100043 e
Info: MASS DENSITY = 0.724795 g/cm^3
Info: ATOM DENSITY = 0.0725366 atoms/A^3
Info: ADDED 0 IMPLICIT EXCLUSIONS
Info: NONBONDED TABLE R-SQUARED SPACING: 0.0625
Info: NONBONDED TABLE SIZE: 705 POINTS
Info: REMOVING COM VELOCITY -0.153946 -0.0689158 0.0288947
TCL: Minimizing for 2000 steps
ETITLE: TS BOND ANGLE DIHED IMPRP ELECT VDW BOUNDARY MISC KINETIC TOTAL TEMP POTENTIAL TOTAL3 TEMPAVG PRESSURE GPRESSURE VOLUME PRESSAVG GPRESSAVG
ENERGY: 0 0.2726 1.4896 0.0251 0.0000 -17451.8305 1974.6302 0.0000 0.0000 0.0000 -15475.4130 0.0000 -15475.4130 -15475.4130 0.0000 11227.7592 -15376.0175 77574.6036 11227.7592 -15376.0175
ENERGY: 400 39.3295 10.4704 4.6315 0.0000 -23638.7672 3499.8797 0.0000 0.0000 0.0000 -20084.4562 0.0000 -20084.4562 -20084.4562 0.0000 16178.9068 16295.5684 77574.6036 16178.9068 16295.5684
ENERGY: 800 1.6508 0.7473 2.1081 0.0000 -24585.1956 3890.4259 0.0000 0.0000 0.0000 -20690.2636 0.0000 -20690.2636 -20690.2636 0.0000 17657.9076 17746.6593 77574.6036 17657.9076 17746.6593
ENERGY: 1200 1.6181 0.8095 1.5856 0.0000 -25068.4136 4086.0172 0.0000 0.0000 0.0000 -20978.3832 0.0000 -20978.3832 -20978.3832 0.0000 18468.7291 18528.6918 77574.6036 18468.7291 18528.6918
ENERGY: 1600 1.3198 0.4698 1.5145 0.0000 -25345.9885 4193.5824 0.0000 0.0000 0.0000 -21149.1020 0.0000 -21149.1020 -21149.1020 0.0000 18981.1418 19022.1401 77574.6036 18981.1418 19022.1401
ENERGY: 2000 1.0199 0.5762 1.5329 0.0000 -25519.0772 4275.8062 0.0000 0.0000 0.0000 -21240.1421 0.0000 -21240.1421 -21240.1421 0.0000 19363.5621 19422.4693 77574.6036 19363.5621 19422.4693
TCL: Exiting due to exit command.
Info: NAMD 3.0.1 for Linux-x86_64-multicore
Info: Please visit http://www.ks.uiuc.edu/Research/namd/
Info: for updates, documentation, and support information.
Info: Please cite Phillips et al., J. Chem. Phys. 153:044130 (2020) doi:10.1063/5.0014475
Info: in all publications reporting results obtained with NAMD.
Info: Based on Charm++/Converse 80000 for multicore-linux-x86_64-gcc
Info: Built Mon Oct 14 11:11:06 CDT 2024 by dhardy on athine.ks.uiuc.edu
Info: 1 NAMD  3.0.1  Linux-x86_64-multicore  16    k014  z5358697
Info: Running on 16 processors, 1 nodes, 1 physical nodes.
Info: CPU topology information available.
Info: Charm++/Converse parallel runtime startup completed at 0.0108207 s
Info: 1043.45 MB of memory in use based on /proc/self/stat
Info: Configuration file is mobley_5003962_equil.namd
Info: Working in the current directory /srv/scratch/z5358697/prod_prep_6/5003962
TCL: Running 25000 steps at 30 kelvin.
TCL: Suspending until startup complete.
Info: SIMULATION PARAMETERS:
Info: TIMESTEP               2
Info: NUMBER OF STEPS        0
Info: STEPS PER CYCLE        10
Info: PERIODIC CELL BASIS 1  44.537 0 0
Info: PERIODIC CELL BASIS 2  0 41.432 0
Info: PERIODIC CELL BASIS 3  0 0 42.04
Info: PERIODIC CELL CENTER   0 0 0
Info: WRAPPING WATERS AROUND PERIODIC BOUNDARIES ON OUTPUT.
Info: WRAPPING ALL CLUSTERS AROUND PERIODIC BOUNDARIES ON OUTPUT.
Info: FIRST LDB TIMESTEP     50
Info: LAST LDB TIMESTEP     -1
Info: HOM BACKGROUND SCALING 1
Info: PME BACKGROUND SCALING 1
Info: MIN ATOMS PER PATCH    40
Info: EMPTY PATCH LOAD       40 ATOMS
Info: INITIAL TEMPERATURE    300
Info: CENTER OF MASS MOVING INITIALLY? NO
Info: DIELECTRIC             1
Info: EXCLUDE                SCALED ONE-FOUR
Info: 1-4 ELECTROSTATICS SCALED BY 0.833333
Info: MODIFIED 1-4 VDW PARAMETERS WILL BE USED
Info: DCD FILENAME           mobley_5003962_equil.dcd
Info: DCD FREQUENCY          5000
Info: DCD FIRST STEP         5000
Info: DCD FILE WILL CONTAIN UNIT CELL DATA
Info: XST FILENAME           mobley_5003962_equil.xst
Info: XST FREQUENCY          5000
Info: NO VELOCITY DCD OUTPUT
Info: NO FORCE DCD OUTPUT
Info: OUTPUT FILENAME        mobley_5003962_equil
Info: BINARY OUTPUT FILES WILL BE USED
Info: RESTART FILENAME       mobley_5003962_equil.restart
Info: RESTART FREQUENCY      5000
Info: BINARY RESTART FILES WILL BE USED
Info: CUTOFF                 9
Info: PAIRLIST DISTANCE      11
Info: PAIRLIST SHRINK RATE   0.01
Info: PAIRLIST GROW RATE     0.01
Info: PAIRLIST TRIGGER       0.3
Info: PAIRLISTS PER CYCLE    2
Info: PAIRLISTS ENABLED
Info: MARGIN                 8
Info: HYDROGEN GROUP CUTOFF  2.5
Info: PATCH DIMENSION        21.5
Info: ENERGY OUTPUT STEPS    5000
Info: ENERGY EVALUATION STEPS    5000
Info: OUTPUT ENERGY PRECISION 4
Info: CROSSTERM ENERGY INCLUDED IN DIHEDRAL
Info: TIMING OUTPUT STEPS    50000
Info: PRESSURE OUTPUT STEPS  5000
Info: LANGEVIN DYNAMICS ACTIVE
Info: LANGEVIN TEMPERATURE   30
Info: LANGEVIN USING BBK INTEGRATOR
Info: LANGEVIN DAMPING COEFFICIENT IS 1 INVERSE PS
Info: LANGEVIN DYNAMICS APPLIED TO HYDROGENS
Info: LANGEVIN PISTON PRESSURE CONTROL ACTIVE
Info:        TARGET PRESSURE IS 1.01325 BAR
Info:     OSCILLATION PERIOD IS 50 FS
Info:             DECAY TIME IS 25 FS
Info:     PISTON TEMPERATURE IS 300 K
Info:       PRESSURE CONTROL IS GROUP-BASED
Info:    INITIAL STRAIN RATE IS 0 0 0
Info:       CELL FLUCTUATION IS ISOTROPIC
Info: PARTICLE MESH EWALD (PME) ACTIVE
Info: PME TOLERANCE               1e-06
Info: PME EWALD COEFFICIENT       0.348832
Info: PME INTERPOLATION ORDER     4
Info: PME GRID DIMENSIONS         48 44 44
Info: PME MAXIMUM GRID SPACING    1
Info: FULL ELECTROSTATIC EVALUATION FREQUENCY      2
Info: USING VERLET I (r-RESPA) MTS SCHEME.
Info: C1 SPLITTING OF LONG RANGE ELECTROSTATICS
Info: PLACING ATOMS IN PATCHES BY HYDROGEN GROUPS
Info: RIGID BONDS TO HYDROGEN : ALL
Info:         ERROR TOLERANCE : 1e-08
Info:          MAX ITERATIONS : 100
Info: RIGID WATER USING SETTLE ALGORITHM
Info: RANDOM NUMBER SEED     1741346560
Info: USE HYDROGEN BONDS?    NO
Info: Using AMBER format force field!
Info: AMBER PARM FILE        mobley_5003962.prmtop
Info: COORDINATE PDB         mobley_5003962.pdb
Info: Exclusions will be read from PARM file!
Info: SCNB (VDW SCALING)     2
Info: USING ARITHMETIC MEAN TO COMBINE L-J SIGMA PARAMETERS
Info: BINARY COORDINATES     mobley_5003962_min.coor
Info: SUMMARY OF PARAMETERS:
Info: 8 BONDS
Info: 8 ANGLES
Info:   8 HARMONIC
Info:   0 COSINE-BASED
Info: 6 DIHEDRAL
Info: 0 IMPROPER
Info: 0 CROSSTERM
Info: 0 VDW
Info: 28 VDW_PAIRS
Info: 0 NBTHOLE_PAIRS
Info: STRUCTURE SUMMARY:
Info: 5627 ATOMS
Info: 5629 BONDS
Info: 45 ANGLES
Info: 77 DIHEDRALS
Info: 0 IMPROPERS
Info: 0 CROSSTERMS
Info: 5733 EXCLUSIONS
Info: 5610 RIGID BONDS
Info: 11271 DEGREES OF FREEDOM
Info: 1884 HYDROGEN GROUPS
Info: 3 ATOMS IN LARGEST HYDROGEN GROUP
Info: 1884 MIGRATION GROUPS
Info: 3 ATOMS IN LARGEST MIGRATION GROUP
Info: TOTAL MASS = 33859.1 amu
Info: TOTAL CHARGE = 0.000100043 e
Info: MASS DENSITY = 0.724795 g/cm^3
Info: ATOM DENSITY = 0.0725366 atoms/A^3
Info: ADDED 0 IMPLICIT EXCLUSIONS
Info: NONBONDED TABLE R-SQUARED SPACING: 0.0625
Info: NONBONDED TABLE SIZE: 705 POINTS
Info: REMOVING COM VELOCITY 0.136121 0.17887 -0.0463406
TCL: Running for 25000 steps
ETITLE: TS BOND ANGLE DIHED IMPRP ELECT VDW BOUNDARY MISC KINETIC TOTAL TEMP POTENTIAL TOTAL3 TEMPAVG PRESSURE GPRESSURE VOLUME PRESSAVG GPRESSAVG
ENERGY: 0 1.0199 0.5762 1.5329 0.0000 -25519.0772 4275.8062 0.0000 0.0000 3363.8251 -17876.3170 300.3733 -21240.1421 -17875.6341 300.3733 -242.3922 -205.2016 77574.6036 -242.3922 -205.2016
ENERGY: 5000 1.5618 1.0432 2.3856 0.0000 -27046.1518 4775.3529 0.0000 0.0000 338.2212 -21927.5872 30.2015 -22265.8084 -21926.2931 48.2300 734.8203 788.7440 54638.6052 -2.7106 -2.6865
ENERGY: 10000 1.3053 1.0943 1.8526 0.0000 -26830.2889 4517.1262 0.0000 0.0000 333.8783 -21975.0322 29.8137 -22308.9105 -21973.7032 30.2055 -579.0991 -533.1370 55112.9487 3.4052 3.3411
ENERGY: 15000 0.8910 1.5416 2.1100 0.0000 -26849.1223 4517.0305 0.0000 0.0000 339.8763 -21987.6728 30.3493 -22327.5491 -21986.6707 29.8363 -529.8581 -495.1608 55070.6329 3.0911 3.0529
ENERGY: 20000 1.1086 1.3654 1.8720 0.0000 -27176.8191 4838.2197 0.0000 0.0000 333.5705 -22000.6830 29.7862 -22334.2535 -21999.8666 29.8548 895.9693 948.7140 54560.0652 1.2723 1.2746
ENERGY: 25000 1.1130 1.0640 1.9452 0.0000 -27199.9055 4851.6715 0.0000 0.0000 335.4777 -22008.6340 29.9565 -22344.1118 -22007.9637 29.9968 938.4505 985.7941 54442.3084 0.6857 0.7016
TCL: Running 25000 steps at 60 kelvin.
TCL: Setting parameter langevinTemp to 60
TCL: Running for 25000 steps
ETITLE: TS BOND ANGLE DIHED IMPRP ELECT VDW BOUNDARY MISC KINETIC TOTAL TEMP POTENTIAL TOTAL3 TEMPAVG PRESSURE GPRESSURE VOLUME PRESSAVG GPRESSAVG
ENERGY: 25000 1.1130 1.0640 1.9452 0.0000 -27199.9055 4851.6715 0.0000 0.0000 335.3149 -22008.7969 29.9420 -22344.1118 -22008.2189 29.9420 939.0168 985.7592 54442.3084 939.0168 985.7592
ENERGY: 30000 1.8627 1.9430 2.4297 0.0000 -26393.7872 4366.9057 0.0000 0.0000 668.5155 -21352.1306 59.6952 -22020.6462 -21350.1760 56.5690 -686.2226 -655.8221 55447.7806 1.3973 1.2361
ENERGY: 35000 1.8085 1.6069 3.0846 0.0000 -26417.0727 4361.2974 0.0000 0.0000 677.4208 -21371.8546 60.4904 -22049.2753 -21369.6631 60.1517 -685.6641 -648.0979 55142.4282 1.7524 1.9892
ENERGY: 40000 2.1512 1.7731 2.9200 0.0000 -26610.3535 4514.2822 0.0000 0.0000 682.9847 -21406.2424 60.9872 -22089.2271 -21404.6673 60.3327 -172.1723 -129.6940 55027.0503 2.8031 2.7911
ENERGY: 45000 2.7731 2.2681 1.9451 0.0000 -26712.2630 4595.7727 0.0000 0.0000 685.6365 -21423.8675 61.2240 -22109.5040 -21422.7063 60.1544 194.9853 250.2100 54673.0368 5.9340 5.9261
ENERGY: 50000 1.8855 1.7735 1.9891 0.0000 -26686.0370 4539.5470 0.0000 0.0000 660.7298 -21480.1120 59.0000 -22140.8418 -21477.8795 60.2272 -134.1654 -82.6964 54769.2270 -0.3762 -0.2593
TCL: Running 25000 steps at 90 kelvin.
TCL: Setting parameter langevinTemp to 90
TCL: Running for 25000 steps
ETITLE: TS BOND ANGLE DIHED IMPRP ELECT VDW BOUNDARY MISC KINETIC TOTAL TEMP POTENTIAL TOTAL3 TEMPAVG PRESSURE GPRESSURE VOLUME PRESSAVG GPRESSAVG
ENERGY: 50000 1.8855 1.7735 1.9891 0.0000 -26686.0370 4539.5470 0.0000 0.0000 660.4003 -21480.4415 58.9706 -22140.8418 -21478.9143 58.9706 -134.0347 -82.3477 54769.2270 -134.0347 -82.3477
ENERGY: 55000 2.0022 2.2714 3.2680 0.0000 -26250.2034 4463.5004 0.0000 0.0000 1000.9184 -20778.2430 89.3772 -21779.1614 -20775.5980 87.2194 206.8286 259.0702 55084.0385 5.6498 5.6532
ENERGY: 60000 2.8902 2.3544 3.2672 0.0000 -26135.0810 4277.2575 0.0000 0.0000 985.1496 -20864.1620 87.9691 -21849.3117 -20861.2818 89.6673 -803.3033 -729.0372 55072.1192 4.6664 4.9396
ENERGY: 65000 3.1078 1.8636 3.0039 0.0000 -26280.4049 4431.2241 0.0000 0.0000 998.3312 -20842.8743 89.1461 -21841.2055 -20839.7350 89.8553 16.9405 84.5105 54764.0458 3.4347 3.6654
ENERGY: 70000 1.3299 1.9866 3.4333 0.0000 -26182.0310 4317.6919 0.0000 0.0000 990.9500 -20866.6394 88.4870 -21857.5893 -20863.7993 90.0935 -525.9331 -464.3210 54772.5395 -0.0628 -0.2936
ENERGY: 75000 3.6234 2.0550 3.6064 0.0000 -26292.7126 4375.6989 0.0000 0.0000 1012.5549 -20895.1739 90.4163 -21907.7288 -20892.4575 90.3206 -469.9619 -401.4451 55085.8563 2.0113 2.1011
TCL: Running 25000 steps at 120 kelvin.
TCL: Setting parameter langevinTemp to 120
TCL: Running for 25000 steps
ETITLE: TS BOND ANGLE DIHED IMPRP ELECT VDW BOUNDARY MISC KINETIC TOTAL TEMP POTENTIAL TOTAL3 TEMPAVG PRESSURE GPRESSURE VOLUME PRESSAVG GPRESSAVG
ENERGY: 75000 3.6234 2.0550 3.6064 0.0000 -26292.7126 4375.6989 0.0000 0.0000 1012.0568 -20895.6720 90.3718 -21907.7288 -20893.5203 90.3718 -452.3139 -401.8351 55085.8563 -452.3139 -401.8351
ENERGY: 80000 3.3940 2.9466 4.0858 0.0000 -25598.8887 4060.7056 0.0000 0.0000 1329.0736 -20198.6831 118.6798 -21527.7567 -20195.1066 117.6514 -1130.1535 -1096.3515 55434.2589 6.0178 5.8467
ENERGY: 85000 3.0918 3.0318 3.5482 0.0000 -25769.4576 4162.1236 0.0000 0.0000 1326.3040 -20271.3583 118.4325 -21597.6623 -20268.5544 119.6428 -757.8310 -709.9784 55036.6192 2.7917 2.8877
ENERGY: 90000 1.7584 3.4537 4.1869 0.0000 -26074.6877 4429.2730 0.0000 0.0000 1365.4157 -20270.6000 121.9250 -21636.0157 -20267.1101 120.6088 469.5935 536.5160 54636.1557 2.3806 2.6347
ENERGY: 95000 3.5612 3.0216 4.0131 0.0000 -26056.9841 4355.7506 0.0000 0.0000 1346.4697 -20344.1678 120.2332 -21690.6375 -20341.3075 120.3932 -100.5968 -37.5349 54854.6621 5.0349 4.9270
ENERGY: 100000 3.8219 3.1746 2.5589 0.0000 -26048.1214 4347.7071 0.0000 0.0000 1326.0092 -20364.8497 118.4062 -21690.8589 -20361.6087 120.4160 -179.7978 -161.5607 55109.3584 -2.6959 -2.8013
TCL: Running 25000 steps at 150 kelvin.
TCL: Setting parameter langevinTemp to 150
TCL: Running for 25000 steps
ETITLE: TS BOND ANGLE DIHED IMPRP ELECT VDW BOUNDARY MISC KINETIC TOTAL TEMP POTENTIAL TOTAL3 TEMPAVG PRESSURE GPRESSURE VOLUME PRESSAVG GPRESSAVG
ENERGY: 100000 3.8219 3.1746 2.5589 0.0000 -26048.1214 4347.7071 0.0000 0.0000 1325.3291 -20365.5299 118.3455 -21690.8589 -20362.8769 118.3455 -216.5213 -161.0861 55109.3584 -216.5213 -161.0861
ENERGY: 105000 4.0997 4.9204 4.0655 0.0000 -25457.0576 4172.2413 0.0000 0.0000 1693.4202 -19578.3106 151.2142 -21271.7308 -19573.7672 146.4794 -239.4635 -187.1297 55349.3920 -5.0084 -4.8536
ENERGY: 110000 5.0982 4.5364 2.5528 0.0000 -25491.7781 4180.8260 0.0000 0.0000 1633.3496 -19665.4150 145.8502 -21298.7646 -19660.6174 151.4351 -219.0859 -150.7122 55436.8246 4.3515 4.4009
ENERGY: 115000 5.5735 3.9849 2.6602 0.0000 -25555.8941 4149.7094 0.0000 0.0000 1663.6349 -19730.3313 148.5545 -21393.9661 -19726.7406 149.7620 -712.1337 -627.5969 55630.7726 3.0693 3.0275
ENERGY: 120000 5.2256 3.5141 6.9230 0.0000 -25566.9810 4182.9566 0.0000 0.0000 1670.4492 -19697.9124 149.1630 -21368.3616 -19694.1357 149.9432 -366.0515 -333.1545 55241.8335 1.1503 1.4315
ENERGY: 125000 4.0911 3.5464 5.7349 0.0000 -25824.4133 4451.9164 0.0000 0.0000 1690.7379 -19668.3867 150.9747 -21359.1246 -19664.3942 150.2179 935.5676 1000.1601 54802.8075 6.1335 6.5986
TCL: Running 50000 steps at 180 kelvin.
TCL: Setting parameter langevinTemp to 180
TCL: Running for 50000 steps
ETITLE: TS BOND ANGLE DIHED IMPRP ELECT VDW BOUNDARY MISC KINETIC TOTAL TEMP POTENTIAL TOTAL3 TEMPAVG PRESSURE GPRESSURE VOLUME PRESSAVG GPRESSAVG
ENERGY: 125000 4.0911 3.5464 5.7349 0.0000 -25824.4133 4451.9164 0.0000 0.0000 1689.9333 -19669.1913 150.9029 -21359.1246 -19666.0285 150.9029 953.7691 1000.1936 54802.8075 953.7691 1000.1936
ENERGY: 135000 3.0708 7.1539 6.4694 0.0000 -24777.6486 3941.9951 0.0000 0.0000 1978.2755 -18840.6840 176.6504 -20818.9595 -18835.5591 181.1324 -485.3105 -456.6032 55907.8799 7.4174 7.0929
ENERGY: 145000 2.1299 3.3895 6.3137 0.0000 -24770.1084 3907.6434 0.0000 0.0000 2016.1526 -18834.4793 180.0327 -20850.6319 -18828.9099 181.1527 -474.7812 -398.5508 55496.8776 5.3467 4.8045
ENERGY: 155000 4.2109 3.1364 5.3888 0.0000 -25090.7491 4206.0359 0.0000 0.0000 2035.4852 -18836.4918 181.7590 -20871.9771 -18830.5384 180.5563 892.5386 931.0610 54756.4071 0.7398 0.3410
ENERGY: 165000 4.7786 5.3386 2.7528 0.0000 -24901.2008 4004.1472 0.0000 0.0000 1983.6087 -18900.5750 177.1267 -20884.1837 -18896.0600 180.3408 37.9612 140.3000 54697.7572 5.4586 5.2705
ENERGY: 175000 4.8256 5.7806 5.6045 0.0000 -24831.5653 3916.5364 0.0000 0.0000 2046.4775 -18852.3406 182.7405 -20898.8181 -18845.3603 180.2638 -461.6272 -423.4042 54869.3326 4.9437 4.8327
TCL: Running 50000 steps at 210 kelvin.
TCL: Setting parameter langevinTemp to 210
TCL: Running for 50000 steps
ETITLE: TS BOND ANGLE DIHED IMPRP ELECT VDW BOUNDARY MISC KINETIC TOTAL TEMP POTENTIAL TOTAL3 TEMPAVG PRESSURE GPRESSURE VOLUME PRESSAVG GPRESSAVG
ENERGY: 175000 4.8256 5.7806 5.6045 0.0000 -24831.5653 3916.5364 0.0000 0.0000 2045.4853 -18853.3328 182.6519 -20898.8181 -18849.5379 182.6519 -494.3390 -422.2032 54869.3326 -494.3390 -422.2032
ENERGY: 185000 7.4082 3.3574 4.5088 0.0000 -23432.7984 3483.7393 0.0000 0.0000 2386.8174 -17546.9673 213.1312 -19933.7847 -17540.7096 210.5006 -610.2590 -534.0270 55352.3695 2.7041 2.5005
ENERGY: 195000 7.3021 5.4980 4.1622 0.0000 -23646.4632 3536.1430 0.0000 0.0000 2401.6023 -17691.7555 214.4515 -20093.3579 -17687.7837 208.6137 -494.9563 -402.0764 55212.1674 -1.0357 -0.5693
ENERGY: 205000 5.8489 5.7285 4.5373 0.0000 -23692.4896 3593.6368 0.0000 0.0000 2347.8889 -17734.8492 209.6551 -20082.7380 -17725.8662 211.1274 -322.8658 -255.2227 55261.1916 6.8080 6.3585
ENERGY: 215000 3.4379 5.8527 4.6150 0.0000 -23540.5660 3472.9379 0.0000 0.0000 2404.3966 -17649.3259 214.7010 -20053.7225 -17645.0829 209.8271 -508.4837 -423.0414 54587.5922 4.5049 4.7646
ENERGY: 225000 4.7482 5.0815 9.8930 0.0000 -23700.5049 3537.2319 0.0000 0.0000 2366.8199 -17776.7303 211.3456 -20143.5502 -17772.1573 210.1796 -439.2338 -347.3893 54690.5686 4.9715 4.7954
TCL: Running 50000 steps at 240 kelvin.
TCL: Setting parameter langevinTemp to 240
TCL: Running for 50000 steps
ETITLE: TS BOND ANGLE DIHED IMPRP ELECT VDW BOUNDARY MISC KINETIC TOTAL TEMP POTENTIAL TOTAL3 TEMPAVG PRESSURE GPRESSURE VOLUME PRESSAVG GPRESSAVG
ENERGY: 225000 4.7482 5.0815 9.8930 0.0000 -23700.5049 3537.2319 0.0000 0.0000 2365.6344 -17777.9159 211.2397 -20143.5502 -17773.3260 211.2397 -429.4601 -347.3130 54690.5686 -429.4601 -347.3130
ENERGY: 235000 5.9578 6.9917 7.1259 0.0000 -22288.8116 3092.9665 0.0000 0.0000 2703.8177 -16471.9521 241.4378 -19175.7698 -16464.3947 240.7791 -963.7419 -889.0110 55981.2164 3.6942 4.0966
ENERGY: 245000 4.3304 7.1247 4.3087 0.0000 -22298.7057 3177.4128 0.0000 0.0000 2653.9405 -16451.5887 236.9841 -19105.5292 -16446.8981 240.2761 -495.2947 -430.6283 56036.8640 -2.1333 -2.2975
ENERGY: 255000 8.4619 8.1939 5.9779 0.0000 -22308.3388 3081.8597 0.0000 0.0000 2657.5745 -16546.2710 237.3085 -19203.8455 -16539.3195 239.5754 -978.6561 -847.2462 55383.7881 -1.7791 -1.4310
ENERGY: 265000 7.7457 8.7559 6.0991 0.0000 -22599.5616 3394.3935 0.0000 0.0000 2699.0927 -16483.4748 241.0159 -19182.5675 -16478.4752 239.4030 626.8509 667.1506 55362.2263 1.4217 1.6466
ENERGY: 275000 6.9845 6.6848 4.3758 0.0000 -22625.7226 3313.0375 0.0000 0.0000 2724.2287 -16570.4114 243.2604 -19294.6401 -16565.7349 238.9223 -139.4269 -32.8920 55500.0689 2.5385 2.8341
TCL: Running 50000 steps at 270 kelvin.
TCL: Setting parameter langevinTemp to 270
TCL: Running for 50000 steps
ETITLE: TS BOND ANGLE DIHED IMPRP ELECT VDW BOUNDARY MISC KINETIC TOTAL TEMP POTENTIAL TOTAL3 TEMPAVG PRESSURE GPRESSURE VOLUME PRESSAVG GPRESSAVG
ENERGY: 275000 6.9845 6.6848 4.3758 0.0000 -22625.7226 3313.0375 0.0000 0.0000 2722.8800 -16571.7600 243.1400 -19294.6401 -16567.4441 243.1400 -99.0850 -33.8746 55500.0689 -99.0850 -33.8746
ENERGY: 285000 4.5091 4.1761 11.7968 0.0000 -21384.4231 2947.2100 0.0000 0.0000 2975.4882 -15441.2430 265.6967 -18416.7313 -15434.8508 269.2895 -301.8277 -163.2518 56840.8467 -0.4742 -1.0231
ENERGY: 295000 5.8331 6.9965 5.5998 0.0000 -21331.4653 2893.9587 0.0000 0.0000 3030.6401 -15388.4370 270.6215 -18419.0772 -15379.7487 269.3949 -332.7988 -237.8386 56239.1683 -0.7854 -0.9422
ENERGY: 305000 6.6532 5.9840 4.7983 0.0000 -21513.4243 3093.2373 0.0000 0.0000 3039.7710 -15362.9805 271.4368 -18402.7515 -15357.2704 269.6154 501.7559 595.7518 56238.6693 2.5183 1.9727
ENERGY: 315000 3.8519 6.3496 4.8657 0.0000 -21428.2102 3025.8190 0.0000 0.0000 3051.3847 -15335.9393 272.4739 -18387.3240 -15329.0320 271.2406 162.1983 254.0569 56514.9849 1.3933 1.4905
ENERGY: 325000 7.9887 5.5147 6.4842 0.0000 -21495.6070 3098.2630 0.0000 0.0000 3075.7600 -15301.5965 274.6505 -18377.3565 -15299.4981 271.8599 538.9602 595.4720 56433.6225 -1.0764 -1.1469
TCL: Running 1000000 steps at 300 kelvin.
TCL: Setting parameter langevinTemp to 300
TCL: Running for 1000000 steps
ETITLE: TS BOND ANGLE DIHED IMPRP ELECT VDW BOUNDARY MISC KINETIC TOTAL TEMP POTENTIAL TOTAL3 TEMPAVG PRESSURE GPRESSURE VOLUME PRESSAVG GPRESSAVG
ENERGY: 325000 7.9887 5.5147 6.4842 0.0000 -21495.6070 3098.2630 0.0000 0.0000 3074.2477 -15303.1088 274.5154 -18377.3565 -15298.6247 274.5154 493.3731 593.0921 56433.6225 493.3731 593.0921
ENERGY: 525000 4.7776 3.9073 6.3075 0.0000 -20252.5152 2589.4088 0.0000 0.0000 3299.6797 -14348.4343 294.6454 -17648.1141 -14343.8461 299.4842 -844.6482 -729.7655 58252.5880 5.1591 5.3937
ENERGY: 725000 7.5291 10.7997 4.2911 0.0000 -20106.2373 2561.3643 0.0000 0.0000 3384.4246 -14137.8286 302.2127 -17522.2532 -14133.3564 300.2152 -750.0753 -669.2469 58574.5216 7.3090 7.3768
ENERGY: 925000 7.3462 7.4186 10.9343 0.0000 -20344.3467 2636.9868 0.0000 0.0000 3369.1107 -14312.5501 300.8453 -17681.6608 -14304.1119 300.4674 -536.6059 -469.9411 57661.7758 4.4208 4.7542
ENERGY: 1125000 7.5305 8.0454 5.5138 0.0000 -20552.9845 2791.7926 0.0000 0.0000 3388.9557 -14351.1466 302.6174 -17740.1023 -14345.9752 300.6605 107.5808 140.7853 57739.2025 0.3363 1.5352
ENERGY: 1325000 6.9385 6.0281 7.6746 0.0000 -20334.1021 2786.1824 0.0000 0.0000 3335.6647 -14191.6139 297.8587 -17527.2786 -14185.4452 300.0670 292.2123 436.8526 57918.9501 -3.9879 -3.7502
TCL: Exiting due to exit command.
