Info: SIMULATION PARAMETERS:
Info: TIMESTEP               2
Info: NUMBER OF STEPS        0
Info: STEPS PER CYCLE        10
Info: PERIODIC CELL BASIS 1  37.968 0 0
Info: PERIODIC CELL BASIS 2  0 38.729 0
Info: PERIODIC CELL BASIS 3  0 0 39.119
Info: PERIODIC CELL CENTER   0 0 0
Info: WRAPPING WATERS AROUND PERIODIC BOUNDARIES ON OUTPUT.
Info: WRAPPING ALL CLUSTERS AROUND PERIODIC BOUNDARIES ON OUTPUT.
Info: FIRST LDB TIMESTEP     50
Info: LAST LDB TIMESTEP     -1
Info: HOM BACKGROUND SCALING 1
Info: PME BACKGROUND SCALING 1
Info: MIN ATOMS PER PATCH    40
Info: EMPTY PATCH LOAD       40 ATOMS
Info: INITIAL TEMPERATURE    300
Info: CENTER OF MASS MOVING INITIALLY? NO
Info: DIELECTRIC             1
Info: EXCLUDE                SCALED ONE-FOUR
Info: 1-4 ELECTROSTATICS SCALED BY 0.833333
Info: MODIFIED 1-4 VDW PARAMETERS WILL BE USED
Info: DCD FILENAME           mobley_4364398_min.dcd
Info: DCD FREQUENCY          5000
Info: DCD FIRST STEP         5000
Info: DCD FILE WILL CONTAIN UNIT CELL DATA
Info: XST FILENAME           mobley_4364398_min.xst
Info: XST FREQUENCY          5000
Info: NO VELOCITY DCD OUTPUT
Info: NO FORCE DCD OUTPUT
Info: OUTPUT FILENAME        mobley_4364398_min
Info: BINARY OUTPUT FILES WILL BE USED
Info: RESTART FILENAME       mobley_4364398_min.restart
Info: RESTART FREQUENCY      5000
Info: BINARY RESTART FILES WILL BE USED
Info: CUTOFF                 9
Info: PAIRLIST DISTANCE      11
Info: PAIRLIST SHRINK RATE   0.01
Info: PAIRLIST GROW RATE     0.01
Info: PAIRLIST TRIGGER       0.3
Info: PAIRLISTS PER CYCLE    2
Info: PAIRLISTS ENABLED
Info: MARGIN                 8
Info: HYDROGEN GROUP CUTOFF  2.5
Info: PATCH DIMENSION        21.5
Info: ENERGY OUTPUT STEPS    5000
Info: ENERGY EVALUATION STEPS    5000
Info: OUTPUT ENERGY PRECISION 4
Info: CROSSTERM ENERGY INCLUDED IN DIHEDRAL
Info: TIMING OUTPUT STEPS    50000
Info: PRESSURE OUTPUT STEPS  5000
Info: LANGEVIN DYNAMICS ACTIVE
Info: LANGEVIN TEMPERATURE   300
Info: LANGEVIN USING BBK INTEGRATOR
Info: LANGEVIN DAMPING COEFFICIENT IS 1 INVERSE PS
Info: LANGEVIN DYNAMICS APPLIED TO HYDROGENS
Info: LANGEVIN PISTON PRESSURE CONTROL ACTIVE
Info:        TARGET PRESSURE IS 1.01325 BAR
Info:     OSCILLATION PERIOD IS 50 FS
Info:             DECAY TIME IS 25 FS
Info:     PISTON TEMPERATURE IS 300 K
Info:       PRESSURE CONTROL IS GROUP-BASED
Info:    INITIAL STRAIN RATE IS 0 0 0
Info:       CELL FLUCTUATION IS ISOTROPIC
Info: PARTICLE MESH EWALD (PME) ACTIVE
Info: PME TOLERANCE               1e-06
Info: PME EWALD COEFFICIENT       0.348832
Info: PME INTERPOLATION ORDER     4
Info: PME GRID DIMENSIONS         40 40 40
Info: PME MAXIMUM GRID SPACING    1
Info: FULL ELECTROSTATIC EVALUATION FREQUENCY      2
Info: USING VERLET I (r-RESPA) MTS SCHEME.
Info: C1 SPLITTING OF LONG RANGE ELECTROSTATICS
Info: PLACING ATOMS IN PATCHES BY HYDROGEN GROUPS
Info: RIGID BONDS TO HYDROGEN : ALL
Info:         ERROR TOLERANCE : 1e-08
Info:          MAX ITERATIONS : 100
Info: RIGID WATER USING SETTLE ALGORITHM
Info: RANDOM NUMBER SEED     1741337067
Info: USE HYDROGEN BONDS?    NO
Info: Using AMBER format force field!
Info: AMBER PARM FILE        mobley_4364398.prmtop
Info: COORDINATE PDB         mobley_4364398.pdb
Info: Exclusions will be read from PARM file!
Info: SCNB (VDW SCALING)     2
Info: USING ARITHMETIC MEAN TO COMBINE L-J SIGMA PARAMETERS
Info: SUMMARY OF PARAMETERS:
Info: 4 BONDS
Info: 2 ANGLES
Info:   2 HARMONIC
Info:   0 COSINE-BASED
Info: 0 DIHEDRAL
Info: 0 IMPROPER
Info: 0 CROSSTERM
Info: 0 VDW
Info: 15 VDW_PAIRS
Info: 0 NBTHOLE_PAIRS
Info: STRUCTURE SUMMARY:
Info: 4022 ATOMS
Info: 4021 BONDS
Info: 6 ANGLES
Info: 0 DIHEDRALS
Info: 0 IMPROPERS
Info: 0 CROSSTERMS
Info: 4027 EXCLUSIONS
Info: 4020 RIGID BONDS
Info: 8046 DEGREES OF FREEDOM
Info: 1341 HYDROGEN GROUPS
Info: 4 ATOMS IN LARGEST HYDROGEN GROUP
Info: 1341 MIGRATION GROUPS
Info: 4 ATOMS IN LARGEST MIGRATION GROUP
Info: TOTAL MASS = 24265.4 amu
Info: TOTAL CHARGE = -9.99942e-05 e
Info: MASS DENSITY = 0.700494 g/cm^3
Info: ATOM DENSITY = 0.0699198 atoms/A^3
Info: ADDED 0 IMPLICIT EXCLUSIONS
Info: NONBONDED TABLE R-SQUARED SPACING: 0.0625
Info: NONBONDED TABLE SIZE: 705 POINTS
Info: REMOVING COM VELOCITY 0.0532598 0.0982809 0.14255
TCL: Minimizing for 2000 steps
ETITLE: TS BOND ANGLE DIHED IMPRP ELECT VDW BOUNDARY MISC KINETIC TOTAL TEMP POTENTIAL TOTAL3 TEMPAVG PRESSURE GPRESSURE VOLUME PRESSAVG GPRESSAVG
ENERGY: 0 1.2047 1.5737 0.0000 0.0000 -12336.1249 1427.5065 0.0000 0.0000 0.0000 -10905.8401 0.0000 -10905.8401 -10905.8401 0.0000 10682.7661 -14936.2658 57523.0293 10682.7661 -14936.2658
ENERGY: 400 3.8401 1.9671 0.0000 0.0000 -17433.4387 2789.9846 0.0000 0.0000 0.0000 -14637.6469 0.0000 -14637.6469 -14637.6469 0.0000 16986.5434 17128.0567 57523.0293 16986.5434 17128.0567
ENERGY: 800 0.2816 0.6522 0.0000 0.0000 -18248.9172 3141.2414 0.0000 0.0000 0.0000 -15106.7420 0.0000 -15106.7420 -15106.7420 0.0000 19072.8335 19186.9809 57523.0293 19072.8335 19186.9809
ENERGY: 1200 0.0605 0.7488 0.0000 0.0000 -18502.7029 3226.2232 0.0000 0.0000 0.0000 -15275.6705 0.0000 -15275.6705 -15275.6705 0.0000 19653.0061 19755.5096 57523.0293 19653.0061 19755.5096
ENERGY: 1600 0.0004 0.6841 0.0000 0.0000 -18649.7959 3283.3854 0.0000 0.0000 0.0000 -15365.7259 0.0000 -15365.7259 -15365.7259 0.0000 19963.7002 20053.7461 57523.0293 19963.7002 20053.7461
ENERGY: 2000 0.0201 0.5920 0.0000 0.0000 -18695.7209 3292.0310 0.0000 0.0000 0.0000 -15403.0777 0.0000 -15403.0777 -15403.0777 0.0000 20008.8571 20095.2378 57523.0293 20008.8571 20095.2378
TCL: Exiting due to exit command.
Info: NAMD 3.0.1 for Linux-x86_64-multicore
Info: Please visit http://www.ks.uiuc.edu/Research/namd/
Info: for updates, documentation, and support information.
Info: Please cite Phillips et al., J. Chem. Phys. 153:044130 (2020) doi:10.1063/5.0014475
Info: in all publications reporting results obtained with NAMD.
Info: Based on Charm++/Converse 80000 for multicore-linux-x86_64-gcc
Info: Built Mon Oct 14 11:11:06 CDT 2024 by dhardy on athine.ks.uiuc.edu
Info: 1 NAMD  3.0.1  Linux-x86_64-multicore  16    k010  z5358697
Info: Running on 16 processors, 1 nodes, 1 physical nodes.
Info: CPU topology information available.
Info: Charm++/Converse parallel runtime startup completed at 0.00979204 s
Info: 1043.45 MB of memory in use based on /proc/self/stat
Info: Configuration file is mobley_4364398_equil.namd
Info: Working in the current directory /srv/scratch/z5358697/prod_prep_5/4364398
TCL: Running 25000 steps at 30 kelvin.
TCL: Suspending until startup complete.
Info: SIMULATION PARAMETERS:
Info: TIMESTEP               2
Info: NUMBER OF STEPS        0
Info: STEPS PER CYCLE        10
Info: PERIODIC CELL BASIS 1  37.968 0 0
Info: PERIODIC CELL BASIS 2  0 38.729 0
Info: PERIODIC CELL BASIS 3  0 0 39.119
Info: PERIODIC CELL CENTER   0 0 0
Info: WRAPPING WATERS AROUND PERIODIC BOUNDARIES ON OUTPUT.
Info: WRAPPING ALL CLUSTERS AROUND PERIODIC BOUNDARIES ON OUTPUT.
Info: FIRST LDB TIMESTEP     50
Info: LAST LDB TIMESTEP     -1
Info: HOM BACKGROUND SCALING 1
Info: PME BACKGROUND SCALING 1
Info: MIN ATOMS PER PATCH    40
Info: EMPTY PATCH LOAD       40 ATOMS
Info: INITIAL TEMPERATURE    300
Info: CENTER OF MASS MOVING INITIALLY? NO
Info: DIELECTRIC             1
Info: EXCLUDE                SCALED ONE-FOUR
Info: 1-4 ELECTROSTATICS SCALED BY 0.833333
Info: MODIFIED 1-4 VDW PARAMETERS WILL BE USED
Info: DCD FILENAME           mobley_4364398_equil.dcd
Info: DCD FREQUENCY          5000
Info: DCD FIRST STEP         5000
Info: DCD FILE WILL CONTAIN UNIT CELL DATA
Info: XST FILENAME           mobley_4364398_equil.xst
Info: XST FREQUENCY          5000
Info: NO VELOCITY DCD OUTPUT
Info: NO FORCE DCD OUTPUT
Info: OUTPUT FILENAME        mobley_4364398_equil
Info: BINARY OUTPUT FILES WILL BE USED
Info: RESTART FILENAME       mobley_4364398_equil.restart
Info: RESTART FREQUENCY      5000
Info: BINARY RESTART FILES WILL BE USED
Info: CUTOFF                 9
Info: PAIRLIST DISTANCE      11
Info: PAIRLIST SHRINK RATE   0.01
Info: PAIRLIST GROW RATE     0.01
Info: PAIRLIST TRIGGER       0.3
Info: PAIRLISTS PER CYCLE    2
Info: PAIRLISTS ENABLED
Info: MARGIN                 8
Info: HYDROGEN GROUP CUTOFF  2.5
Info: PATCH DIMENSION        21.5
Info: ENERGY OUTPUT STEPS    5000
Info: ENERGY EVALUATION STEPS    5000
Info: OUTPUT ENERGY PRECISION 4
Info: CROSSTERM ENERGY INCLUDED IN DIHEDRAL
Info: TIMING OUTPUT STEPS    50000
Info: PRESSURE OUTPUT STEPS  5000
Info: LANGEVIN DYNAMICS ACTIVE
Info: LANGEVIN TEMPERATURE   30
Info: LANGEVIN USING BBK INTEGRATOR
Info: LANGEVIN DAMPING COEFFICIENT IS 1 INVERSE PS
Info: LANGEVIN DYNAMICS APPLIED TO HYDROGENS
Info: LANGEVIN PISTON PRESSURE CONTROL ACTIVE
Info:        TARGET PRESSURE IS 1.01325 BAR
Info:     OSCILLATION PERIOD IS 50 FS
Info:             DECAY TIME IS 25 FS
Info:     PISTON TEMPERATURE IS 300 K
Info:       PRESSURE CONTROL IS GROUP-BASED
Info:    INITIAL STRAIN RATE IS 0 0 0
Info:       CELL FLUCTUATION IS ISOTROPIC
Info: PARTICLE MESH EWALD (PME) ACTIVE
Info: PME TOLERANCE               1e-06
Info: PME EWALD COEFFICIENT       0.348832
Info: PME INTERPOLATION ORDER     4
Info: PME GRID DIMENSIONS         40 40 40
Info: PME MAXIMUM GRID SPACING    1
Info: FULL ELECTROSTATIC EVALUATION FREQUENCY      2
Info: USING VERLET I (r-RESPA) MTS SCHEME.
Info: C1 SPLITTING OF LONG RANGE ELECTROSTATICS
Info: PLACING ATOMS IN PATCHES BY HYDROGEN GROUPS
Info: RIGID BONDS TO HYDROGEN : ALL
Info:         ERROR TOLERANCE : 1e-08
Info:          MAX ITERATIONS : 100
Info: RIGID WATER USING SETTLE ALGORITHM
Info: RANDOM NUMBER SEED     1741337083
Info: USE HYDROGEN BONDS?    NO
Info: Using AMBER format force field!
Info: AMBER PARM FILE        mobley_4364398.prmtop
Info: COORDINATE PDB         mobley_4364398.pdb
Info: Exclusions will be read from PARM file!
Info: SCNB (VDW SCALING)     2
Info: USING ARITHMETIC MEAN TO COMBINE L-J SIGMA PARAMETERS
Info: BINARY COORDINATES     mobley_4364398_min.coor
Info: SUMMARY OF PARAMETERS:
Info: 4 BONDS
Info: 2 ANGLES
Info:   2 HARMONIC
Info:   0 COSINE-BASED
Info: 0 DIHEDRAL
Info: 0 IMPROPER
Info: 0 CROSSTERM
Info: 0 VDW
Info: 15 VDW_PAIRS
Info: 0 NBTHOLE_PAIRS
Info: STRUCTURE SUMMARY:
Info: 4022 ATOMS
Info: 4021 BONDS
Info: 6 ANGLES
Info: 0 DIHEDRALS
Info: 0 IMPROPERS
Info: 0 CROSSTERMS
Info: 4027 EXCLUSIONS
Info: 4020 RIGID BONDS
Info: 8046 DEGREES OF FREEDOM
Info: 1341 HYDROGEN GROUPS
Info: 4 ATOMS IN LARGEST HYDROGEN GROUP
Info: 1341 MIGRATION GROUPS
Info: 4 ATOMS IN LARGEST MIGRATION GROUP
Info: TOTAL MASS = 24265.4 amu
Info: TOTAL CHARGE = -9.99942e-05 e
Info: MASS DENSITY = 0.700494 g/cm^3
Info: ATOM DENSITY = 0.0699198 atoms/A^3
Info: ADDED 0 IMPLICIT EXCLUSIONS
Info: NONBONDED TABLE R-SQUARED SPACING: 0.0625
Info: NONBONDED TABLE SIZE: 705 POINTS
Info: REMOVING COM VELOCITY 0.0145154 -0.00984705 0.0341102
TCL: Running for 25000 steps
ETITLE: TS BOND ANGLE DIHED IMPRP ELECT VDW BOUNDARY MISC KINETIC TOTAL TEMP POTENTIAL TOTAL3 TEMPAVG PRESSURE GPRESSURE VOLUME PRESSAVG GPRESSAVG
ENERGY: 0 0.0201 0.5920 0.0000 0.0000 -18695.7209 3292.0310 0.0000 0.0000 2429.3726 -12973.7051 303.8817 -15403.0777 -12973.2289 303.8817 584.2605 618.0736 57523.0293 584.2605 618.0736
ENERGY: 5000 0.0006 0.7324 0.0000 0.0000 -19316.1409 3361.5290 0.0000 0.0000 245.6856 -15708.1934 30.7319 -15953.8790 -15707.5083 46.9960 58.4945 116.7491 39581.4082 5.2107 5.4112
ENERGY: 10000 0.0001 0.7981 0.0000 0.0000 -19391.5342 3387.1776 0.0000 0.0000 239.5283 -15764.0302 29.9617 -16003.5584 -15763.3337 30.2709 138.2615 194.3922 39346.4331 7.2411 7.2770
ENERGY: 15000 0.0007 0.6962 0.0000 0.0000 -19429.5113 3401.9103 0.0000 0.0000 243.5458 -15783.3583 30.4643 -16026.9041 -15782.5323 30.0697 169.0686 225.1851 39409.7478 4.5943 4.6526
ENERGY: 20000 0.1350 0.7287 0.0000 0.0000 -19265.7286 3237.1142 0.0000 0.0000 239.4043 -15788.3463 29.9462 -16027.7507 -15787.7670 30.1866 -872.5940 -804.3477 39647.9967 0.3409 0.5985
ENERGY: 25000 0.0069 0.7880 0.0000 0.0000 -19280.3882 3245.0164 0.0000 0.0000 234.3788 -15800.1981 29.3176 -16034.5769 -15799.7066 30.1138 -775.9505 -714.7327 39577.0983 2.6438 2.3943
TCL: Running 25000 steps at 60 kelvin.
TCL: Setting parameter langevinTemp to 60
TCL: Running for 25000 steps
ETITLE: TS BOND ANGLE DIHED IMPRP ELECT VDW BOUNDARY MISC KINETIC TOTAL TEMP POTENTIAL TOTAL3 TEMPAVG PRESSURE GPRESSURE VOLUME PRESSAVG GPRESSAVG
ENERGY: 25000 0.0069 0.7880 0.0000 0.0000 -19280.3882 3245.0164 0.0000 0.0000 234.2637 -15800.3132 29.3032 -16034.5769 -15799.7950 29.3032 -776.7474 -714.7843 39577.0983 -776.7474 -714.7843
ENERGY: 30000 0.0035 1.0783 0.0000 0.0000 -19057.4730 3224.1145 0.0000 0.0000 476.9719 -15355.3048 59.6627 -15832.2767 -15353.8376 56.8821 -256.7540 -195.6908 39220.9375 3.9841 3.8460
ENERGY: 35000 0.2009 0.7419 0.0000 0.0000 -19149.0030 3270.4886 0.0000 0.0000 480.3053 -15397.2663 60.0797 -15877.5715 -15396.4867 59.9248 -11.0655 59.8059 38999.1943 -0.4537 -0.2627
ENERGY: 40000 0.0007 1.0206 0.0000 0.0000 -19186.6204 3294.7566 0.0000 0.0000 478.7111 -15412.1315 59.8803 -15890.8426 -15411.1390 59.9776 -1.9094 88.5436 39094.8608 3.2190 3.1354
ENERGY: 45000 0.0079 1.0263 0.0000 0.0000 -19264.3062 3343.0611 0.0000 0.0000 468.3378 -15451.8732 58.5827 -15920.2110 -15450.5368 60.3270 229.7350 279.4594 39058.0468 3.6029 3.5088
ENERGY: 50000 0.0120 0.7585 0.0000 0.0000 -19402.8511 3475.5264 0.0000 0.0000 474.3734 -15452.1808 59.3377 -15926.5542 -15451.4114 60.6903 1111.6478 1197.9944 38687.6050 6.9520 7.1112
TCL: Running 25000 steps at 90 kelvin.
TCL: Setting parameter langevinTemp to 90
TCL: Running for 25000 steps
ETITLE: TS BOND ANGLE DIHED IMPRP ELECT VDW BOUNDARY MISC KINETIC TOTAL TEMP POTENTIAL TOTAL3 TEMPAVG PRESSURE GPRESSURE VOLUME PRESSAVG GPRESSAVG
ENERGY: 50000 0.0120 0.7585 0.0000 0.0000 -19402.8511 3475.5264 0.0000 0.0000 474.1342 -15452.4200 59.3078 -15926.5542 -15451.5875 59.3078 1126.1637 1197.9167 38687.6050 1126.1637 1197.9167
ENERGY: 55000 0.0095 1.0680 0.0000 0.0000 -18781.8586 3110.0699 0.0000 0.0000 691.3340 -14979.3772 86.4765 -15670.7112 -14977.6498 86.5220 -677.9249 -590.5847 39512.8754 3.6987 3.9066
ENERGY: 60000 0.0122 0.7314 0.0000 0.0000 -18977.5795 3266.2859 0.0000 0.0000 743.6806 -14966.8694 93.0244 -15710.5500 -14965.6928 90.4718 363.6820 418.1367 39128.6957 4.0258 3.4627
ENERGY: 65000 0.0000 1.1390 0.0000 0.0000 -18910.9981 3187.1486 0.0000 0.0000 728.4179 -14994.2925 91.1152 -15722.7105 -14992.0325 89.8897 -145.9570 -120.7890 39295.0602 0.3868 -0.0855
ENERGY: 70000 0.0029 0.8874 0.0000 0.0000 -18989.8069 3249.5211 0.0000 0.0000 713.5154 -15025.8802 89.2511 -15739.3956 -15024.7286 89.8775 64.5292 140.1164 39211.2612 8.2075 8.1101
ENERGY: 75000 0.1244 1.2814 0.0000 0.0000 -19119.0933 3372.0394 0.0000 0.0000 714.5432 -15031.1050 89.3797 -15745.6481 -15029.0194 89.8563 842.1132 921.3295 39019.6001 1.4584 1.4318
TCL: Running 25000 steps at 120 kelvin.
TCL: Setting parameter langevinTemp to 120
TCL: Running for 25000 steps
ETITLE: TS BOND ANGLE DIHED IMPRP ELECT VDW BOUNDARY MISC KINETIC TOTAL TEMP POTENTIAL TOTAL3 TEMPAVG PRESSURE GPRESSURE VOLUME PRESSAVG GPRESSAVG
ENERGY: 75000 0.1244 1.2814 0.0000 0.0000 -19119.0933 3372.0394 0.0000 0.0000 714.1953 -15031.4528 89.3362 -15745.6481 -15030.4017 89.3362 873.3635 921.6753 39019.6001 873.3635 921.6753
ENERGY: 80000 0.1548 0.9681 0.0000 0.0000 -18567.8441 3090.7425 0.0000 0.0000 964.4443 -14511.5343 120.6389 -15475.9786 -14508.9511 116.7626 -142.2863 -80.2779 39574.0036 6.8876 6.5300
ENERGY: 85000 0.0124 0.9020 0.0000 0.0000 -18715.6292 3243.8546 0.0000 0.0000 961.4308 -14509.4294 120.2620 -15470.8602 -14507.7087 120.0273 914.2765 936.7718 39137.4734 -2.6458 -2.5515
ENERGY: 90000 0.1289 0.9947 0.0000 0.0000 -18733.4571 3192.9854 0.0000 0.0000 961.4334 -14577.9146 120.2623 -15539.3480 -14575.1604 120.9065 309.9463 369.7747 39397.7473 3.2087 3.0731
ENERGY: 95000 0.0660 1.1810 0.0000 0.0000 -18764.3448 3196.8393 0.0000 0.0000 944.6445 -14621.6140 118.1622 -15566.2584 -14618.7020 120.2036 264.9964 318.3097 39155.0679 -6.0547 -5.6603
ENERGY: 100000 0.0114 1.9764 0.0000 0.0000 -18608.4923 3043.1715 0.0000 0.0000 943.6041 -14619.7288 118.0321 -15563.3329 -14616.8109 119.8081 -637.4024 -578.0051 39227.4623 1.5153 1.4855
TCL: Running 25000 steps at 150 kelvin.
TCL: Setting parameter langevinTemp to 150
TCL: Running for 25000 steps
ETITLE: TS BOND ANGLE DIHED IMPRP ELECT VDW BOUNDARY MISC KINETIC TOTAL TEMP POTENTIAL TOTAL3 TEMPAVG PRESSURE GPRESSURE VOLUME PRESSAVG GPRESSAVG
ENERGY: 100000 0.0114 1.9764 0.0000 0.0000 -18608.4923 3043.1715 0.0000 0.0000 943.1242 -14620.2087 117.9721 -15563.3329 -14618.3321 117.9721 -632.9087 -578.2433 39227.4623 -632.9087 -578.2433
ENERGY: 105000 0.0935 1.3682 0.0000 0.0000 -18363.7635 3075.6956 0.0000 0.0000 1171.7551 -14114.8511 146.5707 -15286.6062 -14112.6455 146.7797 205.1351 216.7850 39525.3085 -2.0803 -1.6398
ENERGY: 110000 0.1289 1.6648 0.0000 0.0000 -18372.1232 3062.9069 0.0000 0.0000 1215.5164 -14091.9062 152.0447 -15307.4226 -14088.1098 150.6367 205.4231 274.1766 39254.4632 3.1548 2.9423
ENERGY: 115000 0.0766 1.0021 0.0000 0.0000 -18353.9163 3047.1258 0.0000 0.0000 1167.7410 -14137.9707 146.0686 -15305.7118 -14134.5035 150.7793 -120.2187 -69.0089 39593.7407 7.1096 6.7147
ENERGY: 120000 0.0694 0.7706 0.0000 0.0000 -18300.6986 2948.3127 0.0000 0.0000 1223.9550 -14127.5909 153.1002 -15351.5459 -14124.1957 149.2026 -736.9255 -705.0078 39582.6988 15.5498 15.6018
ENERGY: 125000 0.1308 1.0617 0.0000 0.0000 -18391.0308 3028.2179 0.0000 0.0000 1190.4668 -14171.1537 148.9113 -15361.6205 -14168.4577 149.8974 -211.9456 -199.8747 39354.8381 2.4573 2.6697
TCL: Running 50000 steps at 180 kelvin.
TCL: Setting parameter langevinTemp to 180
TCL: Running for 50000 steps
ETITLE: TS BOND ANGLE DIHED IMPRP ELECT VDW BOUNDARY MISC KINETIC TOTAL TEMP POTENTIAL TOTAL3 TEMPAVG PRESSURE GPRESSURE VOLUME PRESSAVG GPRESSAVG
ENERGY: 125000 0.1308 1.0617 0.0000 0.0000 -18391.0308 3028.2179 0.0000 0.0000 1189.8926 -14171.7278 148.8395 -15361.6205 -14169.4035 148.8395 -249.1735 -199.2804 39354.8381 -249.1735 -199.2804
ENERGY: 135000 0.0984 1.0032 0.0000 0.0000 -17787.5809 2845.3957 0.0000 0.0000 1444.5670 -13496.5166 180.6958 -14941.0836 -13491.7382 179.6118 -240.0427 -205.9869 39573.5597 -0.4554 -0.7548
ENERGY: 145000 0.1959 1.3908 0.0000 0.0000 -17790.5774 2851.1359 0.0000 0.0000 1413.0698 -13524.7850 176.7559 -14937.8548 -13522.0294 179.3310 -318.0989 -300.3451 39747.3644 2.3630 2.8102
ENERGY: 155000 0.0197 1.5351 0.0000 0.0000 -17913.4611 2918.3805 0.0000 0.0000 1445.6507 -13547.8751 180.8313 -14993.5258 -13545.7444 180.1691 245.2539 292.3287 39108.9995 4.4235 4.7087
ENERGY: 165000 0.1006 0.9577 0.0000 0.0000 -17836.0655 2916.5521 0.0000 0.0000 1435.7037 -13482.7513 179.5871 -14918.4550 -13479.4385 180.5297 408.2685 474.1341 39127.7159 -1.8767 -1.7068
ENERGY: 175000 0.0638 1.1425 0.0000 0.0000 -17915.5017 2935.2691 0.0000 0.0000 1464.5237 -13514.5026 183.1921 -14979.0263 -13511.6008 180.3075 408.5744 459.8617 39093.4504 -0.1425 0.5625
TCL: Running 50000 steps at 210 kelvin.
TCL: Setting parameter langevinTemp to 210
TCL: Running for 50000 steps
ETITLE: TS BOND ANGLE DIHED IMPRP ELECT VDW BOUNDARY MISC KINETIC TOTAL TEMP POTENTIAL TOTAL3 TEMPAVG PRESSURE GPRESSURE VOLUME PRESSAVG GPRESSAVG
ENERGY: 175000 0.0638 1.1425 0.0000 0.0000 -17915.5017 2935.2691 0.0000 0.0000 1463.8161 -13515.2102 183.1036 -14979.0263 -13512.2394 183.1036 394.3987 459.6648 39093.4504 394.3987 459.6648
ENERGY: 185000 0.0417 1.8066 0.0000 0.0000 -17096.9578 2707.5894 0.0000 0.0000 1664.2525 -12723.2677 208.1755 -14387.5202 -12718.7996 210.4094 785.9717 827.1365 38892.8006 3.4126 2.8353
ENERGY: 195000 0.5821 1.4330 0.0000 0.0000 -16951.3709 2620.9691 0.0000 0.0000 1661.7458 -12666.6409 207.8619 -14328.3867 -12662.6305 210.4835 409.1172 449.1390 39071.2403 5.8157 5.2005
ENERGY: 205000 0.9047 2.8645 0.0000 0.0000 -16927.6077 2499.8020 0.0000 0.0000 1723.0448 -12700.9917 215.5296 -14424.0365 -12696.0887 210.4992 -595.0730 -532.0073 39179.3827 -2.8880 -1.9783
ENERGY: 215000 0.0003 1.0416 0.0000 0.0000 -17003.7825 2643.5895 0.0000 0.0000 1667.3468 -12691.8043 208.5625 -14359.1511 -12686.7815 208.7113 375.3015 438.5043 39085.5323 2.7482 3.3612
ENERGY: 225000 0.0467 0.8456 0.0000 0.0000 -17048.9200 2674.3233 0.0000 0.0000 1665.4633 -12708.2410 208.3269 -14373.7043 -12703.9305 211.1639 437.4607 478.1321 39282.8293 2.6651 3.2346
TCL: Running 50000 steps at 240 kelvin.
TCL: Setting parameter langevinTemp to 240
TCL: Running for 50000 steps
ETITLE: TS BOND ANGLE DIHED IMPRP ELECT VDW BOUNDARY MISC KINETIC TOTAL TEMP POTENTIAL TOTAL3 TEMPAVG PRESSURE GPRESSURE VOLUME PRESSAVG GPRESSAVG
ENERGY: 225000 0.0467 0.8456 0.0000 0.0000 -17048.9200 2674.3233 0.0000 0.0000 1664.6371 -12709.0672 208.2236 -14373.7043 -12706.7175 208.2236 408.2946 478.5324 39282.8293 408.2946 478.5324
ENERGY: 235000 0.4530 0.7667 0.0000 0.0000 -15895.1714 2173.7744 0.0000 0.0000 1898.8770 -11821.3003 237.5238 -13720.1773 -11817.0510 240.5016 -881.9236 -798.8166 39622.6937 1.6180 1.4261
ENERGY: 245000 0.6149 2.3114 0.0000 0.0000 -16206.6360 2418.2643 0.0000 0.0000 1940.3084 -11845.1370 242.7063 -13785.4454 -11839.9407 240.2095 46.4855 129.0847 40367.8305 3.3477 3.9680
ENERGY: 255000 0.2585 0.9914 0.0000 0.0000 -16211.7766 2426.2674 0.0000 0.0000 1904.8673 -11879.3920 238.2731 -13784.2593 -11874.8134 240.6599 532.4745 650.5791 39127.6320 0.6514 0.4567
ENERGY: 265000 0.9254 1.2775 0.0000 0.0000 -16070.8477 2342.8718 0.0000 0.0000 1951.6907 -11774.0822 244.1301 -13725.7729 -11768.9003 239.0308 253.0346 318.0684 39363.2903 0.4736 0.5368
ENERGY: 275000 0.0371 2.3450 0.0000 0.0000 -16140.1940 2386.7125 0.0000 0.0000 1911.1612 -11839.9381 239.0604 -13751.0993 -11834.4941 240.9891 226.3115 282.7434 39574.6496 2.0039 1.5876
TCL: Running 50000 steps at 270 kelvin.
TCL: Setting parameter langevinTemp to 270
TCL: Running for 50000 steps
ETITLE: TS BOND ANGLE DIHED IMPRP ELECT VDW BOUNDARY MISC KINETIC TOTAL TEMP POTENTIAL TOTAL3 TEMPAVG PRESSURE GPRESSURE VOLUME PRESSAVG GPRESSAVG
ENERGY: 275000 0.0371 2.3450 0.0000 0.0000 -16140.1940 2386.7125 0.0000 0.0000 1910.2050 -11840.8943 238.9408 -13751.0993 -11837.8539 238.9408 213.4989 283.7258 39574.6496 213.4989 283.7258
ENERGY: 285000 0.0195 2.6597 0.0000 0.0000 -15334.2887 2128.6330 0.0000 0.0000 2102.6455 -11100.3311 263.0125 -13202.9766 -11094.7950 270.1094 127.7649 206.3687 39723.8005 -1.6105 -2.3171
ENERGY: 295000 0.0100 1.6810 0.0000 0.0000 -15525.5389 2210.7218 0.0000 0.0000 2162.4290 -11150.6971 270.4906 -13313.1261 -11144.6344 267.7449 83.3032 250.9015 40143.0322 2.8564 2.9137
ENERGY: 305000 0.0328 0.9804 0.0000 0.0000 -15343.0706 2170.0912 0.0000 0.0000 2132.4005 -11039.5658 266.7345 -13171.9663 -11038.0265 270.8300 281.6438 367.3252 40181.8166 0.5042 0.0667
ENERGY: 315000 1.0019 2.2761 0.0000 0.0000 -15269.1338 2126.3788 0.0000 0.0000 2140.8652 -10998.6118 267.7933 -13139.4770 -10992.7584 269.3621 93.7626 188.1003 40312.3538 1.8023 2.0598
ENERGY: 325000 0.5795 2.6477 0.0000 0.0000 -15419.3608 2177.1427 0.0000 0.0000 2165.1980 -11073.7929 270.8370 -13238.9909 -11069.2157 272.6715 20.2534 113.9032 40500.8075 -0.1656 -0.0901
TCL: Running 1000000 steps at 300 kelvin.
TCL: Setting parameter langevinTemp to 300
TCL: Running for 1000000 steps
ETITLE: TS BOND ANGLE DIHED IMPRP ELECT VDW BOUNDARY MISC KINETIC TOTAL TEMP POTENTIAL TOTAL3 TEMPAVG PRESSURE GPRESSURE VOLUME PRESSAVG GPRESSAVG
ENERGY: 325000 0.5795 2.6477 0.0000 0.0000 -15419.3608 2177.1427 0.0000 0.0000 2164.1176 -11074.8732 270.7018 -13238.9909 -11072.0300 270.7018 29.1496 114.3689 40500.8075 29.1496 114.3689
ENERGY: 525000 0.3183 1.7001 0.0000 0.0000 -14330.4573 1863.3190 0.0000 0.0000 2390.0322 -10075.0877 298.9607 -12465.1199 -10070.2451 300.2575 -356.0695 -227.8313 41971.2623 2.5404 2.5388
ENERGY: 725000 0.3797 0.7952 0.0000 0.0000 -14602.0147 1975.9410 0.0000 0.0000 2405.2023 -10219.6964 300.8583 -12624.8988 -10214.7972 301.3078 38.5750 204.8325 41440.2308 9.2849 8.8756
ENERGY: 925000 0.0030 1.4311 0.0000 0.0000 -14546.8751 1923.7298 0.0000 0.0000 2409.0086 -10212.7026 301.3344 -12621.7111 -10210.9399 300.9274 -242.7657 -89.7177 41340.2418 2.0688 2.8178
ENERGY: 1125000 0.0153 0.9725 0.0000 0.0000 -14593.7210 1996.2308 0.0000 0.0000 2382.9917 -10213.5107 298.0800 -12596.5023 -10206.6236 303.3591 286.9882 380.0711 41399.0151 4.2070 4.3550
ENERGY: 1325000 0.0057 1.5004 0.0000 0.0000 -14688.0864 2027.1682 0.0000 0.0000 2336.6451 -10322.7670 292.2827 -12659.4121 -10319.9167 301.2948 409.0364 480.8198 41252.7271 6.9331 6.3338
TCL: Exiting due to exit command.
