Info: SIMULATION PARAMETERS:
Info: TIMESTEP               2
Info: NUMBER OF STEPS        0
Info: STEPS PER CYCLE        10
Info: PERIODIC CELL BASIS 1  30.6892 0 0
Info: PERIODIC CELL BASIS 2  0 31.3848 0
Info: PERIODIC CELL BASIS 3  0 0 31.3357
Info: PERIODIC CELL CENTER   0 0 0
Info: WRAPPING WATERS AROUND PERIODIC BOUNDARIES ON OUTPUT.
Info: WRAPPING ALL CLUSTERS AROUND PERIODIC BOUNDARIES ON OUTPUT.
Info: FIRST LDB TIMESTEP     50
Info: LAST LDB TIMESTEP     -1
Info: HOM BACKGROUND SCALING 1
Info: PME BACKGROUND SCALING 1
Info: MIN ATOMS PER PATCH    40
Info: EMPTY PATCH LOAD       40 ATOMS
Info: VELOCITY FILE          mobley_1278715_equil.vel
Info: CENTER OF MASS MOVING INITIALLY? NO
Info: DIELECTRIC             1
Info: EXCLUDE                SCALED ONE-FOUR
Info: 1-4 ELECTROSTATICS SCALED BY 0.833333
Info: MODIFIED 1-4 VDW PARAMETERS WILL BE USED
Info: DCD FILENAME           mobley_1278715_prod.dcd
Info: DCD FREQUENCY          100000
Info: DCD FIRST STEP         100000
Info: DCD FILE WILL CONTAIN UNIT CELL DATA
Info: XST FILENAME           mobley_1278715_prod.xst
Info: XST FREQUENCY          100000
Info: NO VELOCITY DCD OUTPUT
Info: NO FORCE DCD OUTPUT
Info: OUTPUT FILENAME        mobley_1278715_prod
Info: BINARY OUTPUT FILES WILL BE USED
Info: RESTART FILENAME       mobley_1278715_prod.restart
Info: RESTART FREQUENCY      100000
Info: BINARY RESTART FILES WILL BE USED
Info: CUTOFF                 9
Info: PAIRLIST DISTANCE      11
Info: PAIRLIST SHRINK RATE   0.01
Info: PAIRLIST GROW RATE     0.01
Info: PAIRLIST TRIGGER       0.3
Info: PAIRLISTS PER CYCLE    2
Info: PAIRLISTS ENABLED
Info: MARGIN                 2
Info: HYDROGEN GROUP CUTOFF  2.5
Info: PATCH DIMENSION        15.5
Info: ENERGY OUTPUT STEPS    100000
Info: ENERGY EVALUATION STEPS    100000
Info: OUTPUT ENERGY PRECISION 4
Info: CROSSTERM ENERGY INCLUDED IN DIHEDRAL
Info: TIMING OUTPUT STEPS    1000000
Info: PRESSURE OUTPUT STEPS  100000
Info: ALCHEMICAL FEP ON
Info: FEP CURRENT LAMBDA VALUE     0
Info: FEP COMPARISON LAMBDA VALUE  0.05
Info: FEP INTRA-ALCHEMICAL NON-BONDED INTERACTIONS WILL BE RETAINED
Info: FEP INTRA-ALCHEMICAL BONDED INTERACTIONS WILL BE RETAINED
Info: FEP VDW SHIFTING COEFFICIENT 5
Info: FEP ELEC. ACTIVE FOR ANNIHILATED PARTICLES BETWEEN LAMBDA = 0 AND LAMBDA = 0.5
Info: FEP ELEC. ACTIVE FOR EXNIHILATED PARTICLES BETWEEN LAMBDA = 0.5 AND LAMBDA = 1
Info: FEP VDW ACTIVE FOR ANNIHILATED PARTICLES BETWEEN LAMBDA = 0 AND LAMBDA = 1
Info: FEP VDW ACTIVE FOR EXNIHILATED PARTICLES BETWEEN LAMBDA = 0 AND LAMBDA = 1
Info: FEP BOND ACTIVE FOR ANNIHILATED PARTICLES BETWEEN LAMBDA = 1 AND LAMBDA = 1
Info: FEP BOND ACTIVE FOR EXNIHILATED PARTICLES BETWEEN LAMBDA = 0 AND LAMBDA = 0
Info: LANGEVIN DYNAMICS ACTIVE
Info: LANGEVIN TEMPERATURE   300
Info: LANGEVIN USING BBK INTEGRATOR
Info: LANGEVIN DAMPING COEFFICIENT IS 1 INVERSE PS
Info: LANGEVIN DYNAMICS APPLIED TO HYDROGENS
Info: LANGEVIN PISTON PRESSURE CONTROL ACTIVE
Info:        TARGET PRESSURE IS 1.01325 BAR
Info:     OSCILLATION PERIOD IS 50 FS
Info:             DECAY TIME IS 25 FS
Info:     PISTON TEMPERATURE IS 300 K
Info:       PRESSURE CONTROL IS GROUP-BASED
Info:    INITIAL STRAIN RATE IS -0.000658965 -0.000658965 -0.000658965
Info:       CELL FLUCTUATION IS ISOTROPIC
Info: PARTICLE MESH EWALD (PME) ACTIVE
Info: PME TOLERANCE               1e-06
Info: PME EWALD COEFFICIENT       0.348832
Info: PME INTERPOLATION ORDER     4
Info: PME GRID DIMENSIONS         32 32 32
Info: PME MAXIMUM GRID SPACING    1
Info: PME CALCULATION WILL BE PERFORMED ON GPU
Info: FULL ELECTROSTATIC EVALUATION FREQUENCY      2
Info: USING VERLET I (r-RESPA) MTS SCHEME.
Info: C1 SPLITTING OF LONG RANGE ELECTROSTATICS
Info: PLACING ATOMS IN PATCHES BY HYDROGEN GROUPS
Info: RIGID BONDS TO HYDROGEN : ALL
Info:         ERROR TOLERANCE : 1e-08
Info:          MAX ITERATIONS : 100
Info: RIGID WATER USING SETTLE ALGORITHM
Info: RANDOM NUMBER SEED     1742001789
Info: USE HYDROGEN BONDS?    NO
Info: Using AMBER format force field!
Info: AMBER PARM FILE        mobley_1278715.prmtop
Info: COORDINATE PDB         mobley_1278715.pdb
Info: Exclusions will be read from PARM file!
Info: SCNB (VDW SCALING)     2
Info: USING ARITHMETIC MEAN TO COMBINE L-J SIGMA PARAMETERS
Info: BINARY COORDINATES     mobley_1278715_equil.coor
Info: SUMMARY OF PARAMETERS:
Info: 4 BONDS
Info: 2 ANGLES
Info:   2 HARMONIC
Info:   0 COSINE-BASED
Info: 1 DIHEDRAL
Info: 0 IMPROPER
Info: 0 CROSSTERM
Info: 0 VDW
Info: 10 VDW_PAIRS
Info: 0 NBTHOLE_PAIRS
Info: To read alchdata from file: mobley_1278715.pdb
Info: To read alchflag data from column: 5
Info: STRUCTURE SUMMARY:
Info: 2957 ATOMS
Info: 2956 BONDS
Info: 12 ANGLES
Info: 9 DIHEDRALS
Info: 0 IMPROPERS
Info: 0 CROSSTERMS
Info: 2977 EXCLUSIONS
Info: 2949 RIGID BONDS
Info: ALCH: 0 ATOMS TO DISAPPEAR IN FINAL STATE
Info: ALCH: 8 ATOMS TO APPEAR IN FINAL STATE
Info: 5922 DEGREES OF FREEDOM
Info: 991 HYDROGEN GROUPS
Info: 3 ATOMS IN LARGEST HYDROGEN GROUP
Info: 991 MIGRATION GROUPS
Info: 3 ATOMS IN LARGEST MIGRATION GROUP
Info: TOTAL MASS = 17946.4 amu
Info: TOTAL CHARGE = -0.000199974 e
Info: MASS DENSITY = 0.9874 g/cm^3
Info: ATOM DENSITY = 0.0979731 atoms/A^3
Info: ADDED 0 IMPLICIT EXCLUSIONS
Info: NONBONDED TABLE R-SQUARED SPACING: 0.0625
Info: NONBONDED TABLE SIZE: 705 POINTS
Info: REMOVING COM VELOCITY -0.126157 -0.0346358 -0.0423439
Info: Use 3D box decompostion in PME FFT.
Info: Updated CUDA force table with 4096 elements.
Info: Updated CUDA LJ table with 4 x 4 elements.
Info: Found 11 unique exclusion lists needing 16 bytes
TCL: Running for 1500000 steps
ETITLE: TS BOND ANGLE DIHED IMPRP ELECT VDW BOUNDARY MISC KINETIC TOTAL TEMP POTENTIAL TOTALAVG TEMPAVG PRESSURE GPRESSURE VOLUME PRESSAVG GPRESSAVG
ENERGY: 0 3.8417 1.7463 0.1743 0.0000 -10664.6111 1408.5895 0.0000 0.0000 1790.9026 -7459.3568 304.3645 -9250.2594 -7459.3568 304.3645 -49.0872 41.8766 30181.7628 -49.0872 41.8766
ENERGY: 300000 2.9932 2.0483 0.2775 0.0000 -10814.4007 1500.2918 0.0000 0.0000 1771.8688 -7536.9211 301.1297 -9308.7899 -7495.0189 300.6246 116.8414 173.3359 30601.1633 -93.8948 -31.0598
ENERGY: 600000 3.1261 1.3014 0.0673 0.0000 -10750.4752 1492.1193 0.0000 0.0000 1729.6427 -7524.2183 293.9533 -9253.8610 -7495.9037 298.3850 278.7107 405.4324 30324.3525 -142.3486 -68.0440
ENERGY: 900000 0.3905 2.0543 0.2136 0.0000 -10860.2089 1454.3433 0.0000 0.0000 1787.7456 -7615.4616 303.8279 -9403.2072 -7497.1310 300.4069 -99.5147 -78.5308 30134.9726 -137.9538 -72.3757
ENERGY: 1200000 2.7239 3.6751 0.6946 0.0000 -10757.5433 1438.1247 0.0000 0.0000 1732.4210 -7579.9039 294.4255 -9312.3250 -7505.3656 300.9812 -323.1968 -296.0819 30485.0620 -115.7928 -54.8566
ENERGY: 1500000 2.5995 4.4893 0.5773 0.0000 -10844.4280 1505.6814 0.0000 0.0000 1767.1744 -7563.9062 300.3319 -9331.0806 -7510.0894 300.8361 329.2252 474.4969 30090.7292 -119.1784 -52.9593
TCL: Running FEP window   2: Lambda1 0.05   Lambda2 0.1    [dLambda 0.05  ]
TCL: Setting parameter firsttimestep to 0
TCL: Setting parameter alchLambda to 0.05
Info: NONBONDED TABLE R-SQUARED SPACING: 0.0625
Info: NONBONDED TABLE SIZE: 705 POINTS
TCL: Setting parameter alchLambda2 to 0.1
Info: NONBONDED TABLE R-SQUARED SPACING: 0.0625
Info: NONBONDED TABLE SIZE: 705 POINTS
TCL: Running for 1500000 steps
ETITLE: TS BOND ANGLE DIHED IMPRP ELECT VDW BOUNDARY MISC KINETIC TOTAL TEMP POTENTIAL TOTALAVG TEMPAVG PRESSURE GPRESSURE VOLUME PRESSAVG GPRESSAVG
ENERGY: 0 2.5995 4.4893 0.5773 0.0000 -10844.4288 1509.5907 0.0000 0.0000 1766.2814 -7560.8907 300.1801 -9327.1720 -7560.8907 300.1801 390.3578 490.7328 30090.7292 390.3578 490.7328
ENERGY: 300000 1.9847 3.1528 0.2469 0.0000 -10773.5694 1438.7105 0.0000 0.0000 1762.1350 -7567.3396 299.4754 -9329.4746 -7547.5244 300.1748 78.2961 38.5047 29986.4375 -43.9243 -0.4170
ENERGY: 600000 2.1258 1.6276 0.3198 0.0000 -10634.2234 1361.3043 0.0000 0.0000 1722.0778 -7546.7681 292.6677 -9268.8459 -7553.0385 299.0856 -730.5347 -616.9512 30435.0470 -45.3111 17.6625
ENERGY: 900000 0.7867 1.5726 0.1322 0.0000 -10757.8061 1412.3976 0.0000 0.0000 1816.1389 -7526.7781 308.6534 -9342.9170 -7540.2651 300.2852 -370.8841 -362.9957 30279.7710 -49.0497 9.2421
ENERGY: 1200000 1.9280 1.4332 0.2998 0.0000 -10722.2288 1484.7849 0.0000 0.0000 1760.0959 -7473.6870 299.1289 -9233.7829 -7531.2278 300.7013 248.2164 270.5529 30559.4779 -70.6349 -12.4784
ENERGY: 1500000 2.3470 3.4689 0.4702 0.0000 -10647.3753 1384.2778 0.0000 0.0000 1762.3138 -7494.4975 299.5058 -9256.8113 -7529.7659 300.1760 -283.8359 -192.5927 29982.4298 -124.5072 -65.6488
TCL: Running FEP window   3: Lambda1 0.1    Lambda2 0.15000000000000002 [dLambda 0.05000000000000002]
TCL: Setting parameter firsttimestep to 0
TCL: Setting parameter alchLambda to 0.1
Info: NONBONDED TABLE R-SQUARED SPACING: 0.0625
Info: NONBONDED TABLE SIZE: 705 POINTS
TCL: Setting parameter alchLambda2 to 0.15000000000000002
Info: NONBONDED TABLE R-SQUARED SPACING: 0.0625
Info: NONBONDED TABLE SIZE: 705 POINTS
TCL: Running for 1500000 steps
ETITLE: TS BOND ANGLE DIHED IMPRP ELECT VDW BOUNDARY MISC KINETIC TOTAL TEMP POTENTIAL TOTALAVG TEMPAVG PRESSURE GPRESSURE VOLUME PRESSAVG GPRESSAVG
ENERGY: 0 2.3470 3.4689 0.4702 0.0000 -10647.3765 1386.2815 0.0000 0.0000 1761.4143 -7493.3947 299.3529 -9254.8089 -7493.3947 299.3529 -280.8287 -180.2146 29982.4298 -280.8287 -180.2146
ENERGY: 300000 2.2816 1.1062 0.1868 0.0000 -10607.7135 1337.8341 0.0000 0.0000 1719.9416 -7546.3633 292.3046 -9266.3049 -7500.7969 297.9852 -808.6350 -700.6651 30382.6648 -259.2108 -186.6870
ENERGY: 600000 1.8385 1.3986 0.1656 0.0000 -10680.6713 1413.2377 0.0000 0.0000 1681.6974 -7582.3335 285.8050 -9264.0309 -7527.9170 297.0057 -327.2758 -310.4786 30614.2797 -244.2822 -176.6368
ENERGY: 900000 2.0588 5.1176 0.2769 0.0000 -10833.9788 1530.2202 0.0000 0.0000 1773.2330 -7523.0724 301.3615 -9296.3054 -7508.0560 299.1050 609.7734 634.2130 30172.2483 19.9733 78.3118
ENERGY: 1200000 2.5078 2.8207 0.2405 0.0000 -10739.5305 1478.8284 0.0000 0.0000 1742.6922 -7512.4409 296.1711 -9255.1331 -7502.3848 299.4382 183.4544 220.4342 30608.5084 86.3492 140.6144
ENERGY: 1500000 1.9955 2.3113 0.2733 0.0000 -10782.7645 1481.6320 0.0000 0.0000 1832.2280 -7464.3244 311.3877 -9296.5524 -7503.8956 300.1520 210.5707 266.5276 30426.3671 92.3185 148.4237
TCL: Running FEP window   4: Lambda1 0.15000000000000002 Lambda2 0.2    [dLambda 0.04999999999999999]
TCL: Setting parameter firsttimestep to 0
TCL: Setting parameter alchLambda to 0.15000000000000002
Info: NONBONDED TABLE R-SQUARED SPACING: 0.0625
Info: NONBONDED TABLE SIZE: 705 POINTS
TCL: Setting parameter alchLambda2 to 0.2
Info: NONBONDED TABLE R-SQUARED SPACING: 0.0625
Info: NONBONDED TABLE SIZE: 705 POINTS
TCL: Running for 1500000 steps
ETITLE: TS BOND ANGLE DIHED IMPRP ELECT VDW BOUNDARY MISC KINETIC TOTAL TEMP POTENTIAL TOTALAVG TEMPAVG PRESSURE GPRESSURE VOLUME PRESSAVG GPRESSAVG
ENERGY: 0 1.9955 2.3113 0.2733 0.0000 -10782.7642 1484.0079 0.0000 0.0000 1831.3108 -7462.8654 311.2318 -9294.1762 -7462.8654 311.2318 187.7359 277.4450 30426.3671 187.7359 277.4450
ENERGY: 300000 2.4694 2.6606 0.2337 0.0000 -10842.8731 1536.7457 0.0000 0.0000 1813.7130 -7487.0507 308.2411 -9300.7638 -7501.3422 306.0784 490.9139 572.5054 30515.9612 325.8018 379.0366
ENERGY: 600000 4.7831 1.8229 1.1791 0.0000 -10662.0131 1360.1541 0.0000 0.0000 1790.8340 -7503.2400 304.3528 -9294.0740 -7474.0031 305.3107 -640.1172 -644.8343 30299.1125 151.5725 189.2242
ENERGY: 900000 0.9535 1.9149 0.2604 0.0000 -10775.6986 1492.1357 0.0000 0.0000 1764.8661 -7515.5679 299.9396 -9280.4341 -7490.2524 304.0759 414.8659 452.7299 30153.8350 80.9218 130.0006
ENERGY: 1200000 1.7230 4.0678 0.7507 0.0000 -10851.0985 1535.4587 0.0000 0.0000 1746.3528 -7562.7455 296.7932 -9309.0983 -7496.1673 302.9582 509.8117 564.6886 30547.2560 107.0925 160.9843
ENERGY: 1500000 3.7109 1.7471 0.6721 0.0000 -10691.5118 1407.7198 0.0000 0.0000 1770.8060 -7506.8560 300.9490 -9277.6620 -7499.9413 302.3551 -530.2840 -435.8884 30733.1104 33.6408 94.4387
TCL: Running FEP window   5: Lambda1 0.2    Lambda2 0.25   [dLambda 0.04999999999999999]
TCL: Setting parameter firsttimestep to 0
TCL: Setting parameter alchLambda to 0.2
Info: NONBONDED TABLE R-SQUARED SPACING: 0.0625
Info: NONBONDED TABLE SIZE: 705 POINTS
TCL: Setting parameter alchLambda2 to 0.25
Info: NONBONDED TABLE R-SQUARED SPACING: 0.0625
Info: NONBONDED TABLE SIZE: 705 POINTS
TCL: Running for 1500000 steps
ETITLE: TS BOND ANGLE DIHED IMPRP ELECT VDW BOUNDARY MISC KINETIC TOTAL TEMP POTENTIAL TOTALAVG TEMPAVG PRESSURE GPRESSURE VOLUME PRESSAVG GPRESSAVG
ENERGY: 0 3.7109 1.7471 0.6721 0.0000 -10691.5109 1407.9797 0.0000 0.0000 1769.8905 -7507.5106 300.7935 -9277.4012 -7507.5106 300.7935 -509.3197 -431.1706 30733.1104 -509.3197 -431.1706
ENERGY: 300000 0.9506 3.5872 0.2092 0.0000 -10755.0109 1456.3518 0.0000 0.0000 1779.8382 -7514.0740 302.4841 -9293.9122 -7507.8093 302.6149 -26.0091 87.8675 30533.2030 -215.5315 -134.9321
ENERGY: 600000 3.2881 2.6696 0.2089 0.0000 -10742.9242 1421.8831 0.0000 0.0000 1771.4597 -7543.4148 301.0601 -9314.8745 -7513.3462 302.8718 -97.8544 -81.1153 30250.4794 -10.5776 54.0616
ENERGY: 900000 3.9951 4.7299 0.3944 0.0000 -10593.1140 1362.6380 0.0000 0.0000 1774.3463 -7447.0103 301.5507 -9221.3566 -7491.7458 302.5129 -757.5120 -717.2597 31044.5885 -119.0066 -56.9838
ENERGY: 1200000 1.5391 2.6842 1.0771 0.0000 -10759.8058 1452.0906 0.0000 0.0000 1769.0226 -7533.3923 300.6460 -9302.4149 -7505.8315 301.4666 -311.4604 -234.5330 30832.3209 -77.8075 -19.8134
ENERGY: 1500000 4.2933 1.8375 0.3355 0.0000 -10549.3393 1331.6169 0.0000 0.0000 1771.4590 -7439.7971 301.0600 -9211.2561 -7496.7032 301.5588 -703.7047 -687.5812 30799.1321 -189.9652 -133.2829
TCL: Running FEP window   6: Lambda1 0.25   Lambda2 0.3    [dLambda 0.04999999999999999]
TCL: Setting parameter firsttimestep to 0
TCL: Setting parameter alchLambda to 0.25
Info: NONBONDED TABLE R-SQUARED SPACING: 0.0625
Info: NONBONDED TABLE SIZE: 705 POINTS
TCL: Setting parameter alchLambda2 to 0.3
Info: NONBONDED TABLE R-SQUARED SPACING: 0.0625
Info: NONBONDED TABLE SIZE: 705 POINTS
TCL: Running for 1500000 steps
ETITLE: TS BOND ANGLE DIHED IMPRP ELECT VDW BOUNDARY MISC KINETIC TOTAL TEMP POTENTIAL TOTALAVG TEMPAVG PRESSURE GPRESSURE VOLUME PRESSAVG GPRESSAVG
ENERGY: 0 4.2933 1.8375 0.3355 0.0000 -10549.3394 1331.5466 0.0000 0.0000 1770.6142 -7440.7123 300.9164 -9211.3265 -7440.7123 300.9164 -763.8875 -685.3459 30799.1321 -763.8875 -685.3459
ENERGY: 300000 1.0108 5.9987 0.4001 0.0000 -10709.1073 1422.3659 0.0000 0.0000 1762.8808 -7516.4511 299.6022 -9279.3318 -7500.7458 301.1056 -112.1158 -15.5487 30424.6892 -393.3762 -341.2198
ENERGY: 600000 1.4904 2.0110 0.3984 0.0000 -10786.4412 1452.6561 0.0000 0.0000 1791.8114 -7538.0740 304.5189 -9329.8854 -7485.9282 302.2259 136.0057 195.1217 30160.0160 -154.2004 -103.4284
ENERGY: 900000 1.5879 0.9914 0.1048 0.0000 -10565.5784 1310.2535 0.0000 0.0000 1836.2947 -7416.3461 312.0789 -9252.6408 -7503.5580 300.9766 -749.6473 -687.2024 30282.0796 -244.8001 -188.7686
ENERGY: 1200000 1.2505 2.0692 0.1689 0.0000 -10684.5519 1388.2010 0.0000 0.0000 1749.6132 -7543.2491 297.3473 -9292.8624 -7504.6418 301.3127 -605.4369 -562.5686 30813.2232 -249.8604 -189.8597
ENERGY: 1500000 3.5537 1.4885 0.5725 0.0000 -10796.8737 1519.8393 0.0000 0.0000 1768.5992 -7502.8205 300.5740 -9271.4197 -7503.2842 301.4843 540.9869 610.9639 30239.8115 -171.8493 -109.8435
TCL: Running FEP window   7: Lambda1 0.3    Lambda2 0.35   [dLambda 0.04999999999999999]
TCL: Setting parameter firsttimestep to 0
TCL: Setting parameter alchLambda to 0.3
Info: NONBONDED TABLE R-SQUARED SPACING: 0.0625
Info: NONBONDED TABLE SIZE: 705 POINTS
TCL: Setting parameter alchLambda2 to 0.35
Info: NONBONDED TABLE R-SQUARED SPACING: 0.0625
Info: NONBONDED TABLE SIZE: 705 POINTS
TCL: Running for 1500000 steps
ETITLE: TS BOND ANGLE DIHED IMPRP ELECT VDW BOUNDARY MISC KINETIC TOTAL TEMP POTENTIAL TOTALAVG TEMPAVG PRESSURE GPRESSURE VOLUME PRESSAVG GPRESSAVG
ENERGY: 0 3.5537 1.4885 0.5725 0.0000 -10796.8741 1520.2841 0.0000 0.0000 1767.7276 -7503.2478 300.4259 -9270.9753 -7503.2478 300.4259 540.3329 618.9308 30239.8115 540.3329 618.9308
ENERGY: 300000 3.3027 5.0578 0.5467 0.0000 -10685.7555 1426.7961 0.0000 0.0000 1772.0998 -7477.9525 301.1689 -9250.0523 -7513.6279 300.1008 -276.1488 -165.0046 30783.9105 -83.0418 -27.8006
ENERGY: 600000 1.2615 3.4990 0.7284 0.0000 -10714.7528 1407.4911 0.0000 0.0000 1751.3581 -7550.4147 297.6439 -9301.7728 -7512.9762 301.1871 -543.6595 -437.3040 30730.5989 -202.8120 -149.5792
ENERGY: 900000 1.4774 3.4857 0.4001 0.0000 -10747.2627 1454.7927 0.0000 0.0000 1753.4292 -7533.6776 297.9958 -9287.1068 -7528.6798 299.1026 356.2750 424.3428 29798.8086 -114.8962 -54.6802
ENERGY: 1200000 3.6370 1.6586 0.2540 0.0000 -10778.7485 1463.3724 0.0000 0.0000 1804.6858 -7505.1406 306.7069 -9309.8265 -7522.8884 299.6489 -174.8880 -104.8461 30706.0040 -46.8201 11.8568
ENERGY: 1500000 0.6073 3.6129 0.5099 0.0000 -10799.4609 1513.1959 0.0000 0.0000 1786.5062 -7495.0287 303.6173 -9281.5348 -7514.4169 299.9204 611.4080 661.8040 30319.5707 -49.4562 9.9740
TCL: Running FEP window   8: Lambda1 0.35   Lambda2 0.39999999999999997 [dLambda 0.04999999999999999]
TCL: Setting parameter firsttimestep to 0
TCL: Setting parameter alchLambda to 0.35
Info: NONBONDED TABLE R-SQUARED SPACING: 0.0625
Info: NONBONDED TABLE SIZE: 705 POINTS
TCL: Setting parameter alchLambda2 to 0.39999999999999997
Info: NONBONDED TABLE R-SQUARED SPACING: 0.0625
Info: NONBONDED TABLE SIZE: 705 POINTS
TCL: Running for 1500000 steps
ETITLE: TS BOND ANGLE DIHED IMPRP ELECT VDW BOUNDARY MISC KINETIC TOTAL TEMP POTENTIAL TOTALAVG TEMPAVG PRESSURE GPRESSURE VOLUME PRESSAVG GPRESSAVG
ENERGY: 0 0.6073 3.6129 0.5099 0.0000 -10799.4606 1513.6362 0.0000 0.0000 1785.6552 -7495.4390 303.4727 -9281.0943 -7495.4390 303.4727 575.6314 671.9343 30319.5707 575.6314 671.9343
ENERGY: 300000 1.4549 2.3769 0.1115 0.0000 -10760.4025 1479.7568 0.0000 0.0000 1828.0274 -7448.6749 310.6738 -9276.7023 -7479.5158 302.9875 287.2090 373.1330 30507.0240 55.7318 84.7547
ENERGY: 600000 1.5978 1.8092 0.6402 0.0000 -10742.7690 1433.6431 0.0000 0.0000 1829.0121 -7476.0667 310.8412 -9305.0788 -7494.0024 303.9617 -49.7685 -1.7493 30481.4494 33.7975 61.7286
ENERGY: 900000 3.0103 0.5832 0.8797 0.0000 -10734.0492 1428.5756 0.0000 0.0000 1728.5736 -7572.4268 293.7716 -9301.0004 -7502.8760 301.7194 -474.5648 -453.8121 30857.4799 96.4931 138.9755
ENERGY: 1200000 2.6912 1.6898 0.5841 0.0000 -10687.2579 1456.6722 0.0000 0.0000 1777.9016 -7447.7191 302.1549 -9225.6206 -7494.6146 301.1321 160.1059 160.6972 30804.9698 16.8077 62.7315
ENERGY: 1500000 1.0721 3.6414 0.3566 0.0000 -10840.0752 1536.3208 0.0000 0.0000 1760.9271 -7537.7571 299.2701 -9298.6842 -7500.5973 300.7294 773.5917 835.3660 30067.6212 4.9800 54.7711
TCL: Running FEP window   9: Lambda1 0.39999999999999997 Lambda2 0.44999999999999996 [dLambda 0.04999999999999999]
TCL: Setting parameter firsttimestep to 0
TCL: Setting parameter alchLambda to 0.39999999999999997
Info: NONBONDED TABLE R-SQUARED SPACING: 0.0625
Info: NONBONDED TABLE SIZE: 705 POINTS
TCL: Setting parameter alchLambda2 to 0.44999999999999996
Info: NONBONDED TABLE R-SQUARED SPACING: 0.0625
Info: NONBONDED TABLE SIZE: 705 POINTS
TCL: Running for 1500000 steps
ETITLE: TS BOND ANGLE DIHED IMPRP ELECT VDW BOUNDARY MISC KINETIC TOTAL TEMP POTENTIAL TOTALAVG TEMPAVG PRESSURE GPRESSURE VOLUME PRESSAVG GPRESSAVG
ENERGY: 0 1.0721 3.6414 0.3566 0.0000 -10840.0750 1535.9219 0.0000 0.0000 1760.0482 -7539.0347 299.1208 -9299.0830 -7539.0347 299.1208 750.9682 836.3783 30067.6212 750.9682 836.3783
ENERGY: 300000 4.5121 2.7450 0.2259 0.0000 -11016.6406 1612.8212 0.0000 0.0000 1725.2042 -7671.1322 293.1990 -9396.3364 -7559.0345 298.9660 837.7741 863.7145 30417.8892 239.4169 311.7222
ENERGY: 600000 2.4100 3.3923 0.3556 0.0000 -10550.6335 1331.1523 0.0000 0.0000 1791.2320 -7422.0913 304.4204 -9213.3233 -7511.7494 299.9143 -819.7313 -841.0462 30963.3173 -51.0783 6.8727
ENERGY: 900000 1.4969 3.0517 0.4464 0.0000 -10787.6559 1472.3136 0.0000 0.0000 1696.7747 -7613.5725 288.3674 -9310.3472 -7527.5934 298.2898 156.3296 196.8661 30241.6301 -1.7632 47.4366
ENERGY: 1200000 1.5508 3.0794 0.4995 0.0000 -10848.5141 1580.1953 0.0000 0.0000 1782.0658 -7481.1233 302.8627 -9263.1891 -7520.4686 299.6473 1051.0191 1159.7172 30545.5038 117.0217 176.4236
ENERGY: 1500000 2.3964 1.4831 0.1526 0.0000 -10782.3171 1517.7253 0.0000 0.0000 1763.6227 -7496.9369 299.7282 -9260.5596 -7509.5938 300.2712 185.3098 288.1091 30831.1528 101.3126 160.2092
TCL: Running FEP window  10: Lambda1 0.44999999999999996 Lambda2 0.49999999999999994 [dLambda 0.04999999999999999]
TCL: Setting parameter firsttimestep to 0
TCL: Setting parameter alchLambda to 0.44999999999999996
Info: NONBONDED TABLE R-SQUARED SPACING: 0.0625
Info: NONBONDED TABLE SIZE: 705 POINTS
TCL: Setting parameter alchLambda2 to 0.49999999999999994
Info: NONBONDED TABLE R-SQUARED SPACING: 0.0625
Info: NONBONDED TABLE SIZE: 705 POINTS
TCL: Running for 1500000 steps
ETITLE: TS BOND ANGLE DIHED IMPRP ELECT VDW BOUNDARY MISC KINETIC TOTAL TEMP POTENTIAL TOTALAVG TEMPAVG PRESSURE GPRESSURE VOLUME PRESSAVG GPRESSAVG
ENERGY: 0 2.3964 1.4831 0.1526 0.0000 -10782.3181 1517.5269 0.0000 0.0000 1762.7510 -7498.0081 299.5801 -9260.7591 -7498.0081 299.5801 208.8187 292.1016 30831.1528 208.8187 292.1016
ENERGY: 300000 1.2540 1.4297 0.1689 0.0000 -10723.4365 1394.8066 0.0000 0.0000 1768.3095 -7557.4679 300.5248 -9325.7774 -7510.5554 300.4413 -582.6851 -486.5876 30654.5985 -137.6494 -45.1451
ENERGY: 600000 3.1874 1.9849 0.2468 0.0000 -10797.0948 1513.1097 0.0000 0.0000 1770.0317 -7508.5343 300.8174 -9278.5660 -7500.8140 301.5067 681.0202 721.1830 30187.1882 87.0318 160.5794
ENERGY: 900000 3.1355 4.5639 0.1873 0.0000 -10667.7630 1379.2081 0.0000 0.0000 1768.5557 -7512.1125 300.5666 -9280.6682 -7501.3078 300.9968 -751.7881 -653.9422 30873.5395 -41.8672 30.9600
ENERGY: 1200000 1.0123 1.5836 0.1711 0.0000 -10758.0388 1461.1887 0.0000 0.0000 1752.1325 -7541.9506 297.7755 -9294.0832 -7514.9438 300.3016 103.5793 138.1288 30370.9419 35.9869 106.8548
ENERGY: 1500000 0.2669 1.3002 0.1790 0.0000 -10718.6782 1427.2477 0.0000 0.0000 1732.9065 -7556.7779 294.5080 -9289.6844 -7516.4513 299.6341 20.3651 86.2830 30215.5207 -7.5703 59.7799
TCL: Running FEP window  11: Lambda1 0.49999999999999994 Lambda2 0.5499999999999999 [dLambda 0.04999999999999999]
TCL: Setting parameter firsttimestep to 0
TCL: Setting parameter alchLambda to 0.49999999999999994
Info: NONBONDED TABLE R-SQUARED SPACING: 0.0625
Info: NONBONDED TABLE SIZE: 705 POINTS
TCL: Setting parameter alchLambda2 to 0.5499999999999999
Info: NONBONDED TABLE R-SQUARED SPACING: 0.0625
Info: NONBONDED TABLE SIZE: 705 POINTS
TCL: Running for 1500000 steps
ETITLE: TS BOND ANGLE DIHED IMPRP ELECT VDW BOUNDARY MISC KINETIC TOTAL TEMP POTENTIAL TOTALAVG TEMPAVG PRESSURE GPRESSURE VOLUME PRESSAVG GPRESSAVG
ENERGY: 0 0.2669 1.3002 0.1790 0.0000 -10718.6783 1427.1284 0.0000 0.0000 1732.0046 -7557.7992 294.3547 -9289.8038 -7557.7992 294.3547 9.0289 90.3262 30215.5207 9.0289 90.3262
ENERGY: 300000 3.0076 4.1936 1.4740 0.0000 -10684.4846 1441.2203 0.0000 0.0000 1718.3186 -7516.2706 292.0288 -9234.5891 -7536.4045 293.4721 -160.0553 -70.1700 30900.1273 85.9261 152.0955
ENERGY: 600000 3.4514 3.7514 0.1453 0.0000 -10737.1163 1426.0456 0.0000 0.0000 1821.5394 -7482.1832 309.5712 -9303.7226 -7537.6366 296.0298 -522.6263 -435.5781 30878.1477 51.9991 117.9542
ENERGY: 900000 1.3804 2.3850 0.3787 0.0000 -10760.7092 1408.0060 0.0000 0.0000 1752.0624 -7596.4968 297.7636 -9348.5592 -7542.8405 297.0050 -588.7781 -548.9080 30656.5674 8.7063 70.7619
ENERGY: 1200000 1.0935 2.1241 0.2600 0.0000 -10764.5095 1432.0469 0.0000 0.0000 1768.9283 -7560.0566 300.6299 -9328.9849 -7542.6342 297.4028 -457.1469 -378.5349 30919.6405 -57.6523 12.2791
ENERGY: 1500000 1.4766 2.5155 0.2726 0.0000 -10563.1710 1379.8598 0.0000 0.0000 1747.5009 -7431.5456 296.9883 -9179.0464 -7522.2921 298.7374 -293.9474 -288.1211 30872.4640 -16.4803 39.5245
TCL: Running FEP window  12: Lambda1 0.5499999999999999 Lambda2 0.6    [dLambda 0.050000000000000044]
TCL: Setting parameter firsttimestep to 0
TCL: Setting parameter alchLambda to 0.5499999999999999
Info: NONBONDED TABLE R-SQUARED SPACING: 0.0625
Info: NONBONDED TABLE SIZE: 705 POINTS
TCL: Setting parameter alchLambda2 to 0.6
Info: NONBONDED TABLE R-SQUARED SPACING: 0.0625
Info: NONBONDED TABLE SIZE: 705 POINTS
TCL: Running for 1500000 steps
ETITLE: TS BOND ANGLE DIHED IMPRP ELECT VDW BOUNDARY MISC KINETIC TOTAL TEMP POTENTIAL TOTALAVG TEMPAVG PRESSURE GPRESSURE VOLUME PRESSAVG GPRESSAVG
ENERGY: 0 1.4766 2.5155 0.2726 0.0000 -10563.0921 1379.3461 0.0000 0.0000 1746.6084 -7432.8729 296.8367 -9179.4813 -7432.8729 296.8367 -355.1924 -285.7350 30872.4640 -355.1924 -285.7350
ENERGY: 300000 2.3104 5.7481 1.0411 0.0000 -10614.1963 1344.6362 0.0000 0.0000 1752.5112 -7507.9492 297.8398 -9260.4604 -7463.0559 299.1541 -712.9933 -706.3991 30565.7576 -316.6815 -249.7134
ENERGY: 600000 3.1910 1.8555 0.1042 0.0000 -10568.4377 1321.9756 0.0000 0.0000 1795.0232 -7446.2882 305.0648 -9241.3115 -7488.1676 300.0432 -713.2604 -663.3012 30647.8824 -346.9552 -282.8984
ENERGY: 900000 4.1486 3.6684 0.4259 0.0000 -10723.3211 1450.6003 0.0000 0.0000 1774.3961 -7490.0818 301.5592 -9264.4778 -7479.9620 300.0485 153.8400 278.9195 30089.6351 -273.1151 -206.5442
ENERGY: 1200000 0.4655 5.2150 0.3531 0.0000 -10753.8868 1472.2566 0.0000 0.0000 1780.1114 -7495.4853 302.5305 -9275.5967 -7485.4785 300.3060 426.2613 476.1183 30047.4674 -288.4972 -222.5220
ENERGY: 1500000 1.4808 4.2592 1.0752 0.0000 -10661.7185 1425.7501 0.0000 0.0000 1768.9948 -7460.1583 300.6412 -9229.1532 -7485.8629 300.0582 122.7916 148.7408 30066.9434 -298.6011 -233.2020
TCL: Running FEP window  13: Lambda1 0.6    Lambda2 0.65   [dLambda 0.050000000000000044]
TCL: Setting parameter firsttimestep to 0
TCL: Setting parameter alchLambda to 0.6
Info: NONBONDED TABLE R-SQUARED SPACING: 0.0625
Info: NONBONDED TABLE SIZE: 705 POINTS
TCL: Setting parameter alchLambda2 to 0.65
Info: NONBONDED TABLE R-SQUARED SPACING: 0.0625
Info: NONBONDED TABLE SIZE: 705 POINTS
TCL: Running for 1500000 steps
ETITLE: TS BOND ANGLE DIHED IMPRP ELECT VDW BOUNDARY MISC KINETIC TOTAL TEMP POTENTIAL TOTALAVG TEMPAVG PRESSURE GPRESSURE VOLUME PRESSAVG GPRESSAVG
ENERGY: 0 1.4808 4.2592 1.0752 0.0000 -10661.7301 1426.0168 0.0000 0.0000 1768.1191 -7460.7790 300.4924 -9228.8981 -7460.7790 300.4924 81.0797 162.2675 30066.9434 81.0797 162.2675
ENERGY: 300000 3.3819 3.9316 0.2412 0.0000 -10794.8491 1552.0582 0.0000 0.0000 1754.8896 -7480.3467 298.2440 -9235.2363 -7515.7278 295.6212 1008.7792 997.7144 30577.1115 -54.2590 6.6660
ENERGY: 600000 1.0501 0.9808 0.1898 0.0000 -10907.6747 1533.8130 0.0000 0.0000 1709.4274 -7662.2136 290.5177 -9371.6410 -7532.4085 295.8037 382.8514 421.0235 30601.1782 138.0841 196.9359
ENERGY: 900000 2.0122 3.8860 0.5547 0.0000 -10583.3334 1303.0027 0.0000 0.0000 1776.8019 -7497.0759 301.9680 -9273.8778 -7530.9567 296.5654 -897.8757 -878.1642 30659.8255 -41.1729 14.9795
ENERGY: 1200000 1.6281 1.3285 0.6627 0.0000 -10768.8085 1450.9431 0.0000 0.0000 1787.4121 -7526.8340 303.7712 -9314.2461 -7529.5693 297.9459 -257.5312 -89.4651 30548.2127 -9.3878 55.7779
ENERGY: 1500000 2.6353 2.6391 0.4554 0.0000 -10695.6236 1409.6079 0.0000 0.0000 1802.6811 -7477.6047 306.3662 -9280.2858 -7524.9684 298.3011 -538.2357 -488.7389 31059.9970 -31.4650 33.1686
TCL: Running FEP window  14: Lambda1 0.65   Lambda2 0.7000000000000001 [dLambda 0.050000000000000044]
TCL: Setting parameter firsttimestep to 0
TCL: Setting parameter alchLambda to 0.65
Info: NONBONDED TABLE R-SQUARED SPACING: 0.0625
Info: NONBONDED TABLE SIZE: 705 POINTS
TCL: Setting parameter alchLambda2 to 0.7000000000000001
Info: NONBONDED TABLE R-SQUARED SPACING: 0.0625
Info: NONBONDED TABLE SIZE: 705 POINTS
TCL: Running for 1500000 steps
ETITLE: TS BOND ANGLE DIHED IMPRP ELECT VDW BOUNDARY MISC KINETIC TOTAL TEMP POTENTIAL TOTALAVG TEMPAVG PRESSURE GPRESSURE VOLUME PRESSAVG GPRESSAVG
ENERGY: 0 2.6353 2.6391 0.4554 0.0000 -10695.7110 1410.9370 0.0000 0.0000 1801.7866 -7477.2575 306.2142 -9279.0441 -7477.2575 306.2142 -545.2667 -468.3815 31059.9970 -545.2667 -468.3815
ENERGY: 300000 2.0097 4.0926 1.0471 0.0000 -10611.9003 1376.4610 0.0000 0.0000 1784.8532 -7443.4366 303.3364 -9228.2898 -7466.7550 305.0830 -218.3759 -169.3303 30458.4381 -316.0888 -260.1007
ENERGY: 600000 5.2493 2.3802 0.3265 0.0000 -10693.3115 1404.4728 0.0000 0.0000 1831.0538 -7449.8289 311.1882 -9280.8827 -7495.0464 305.2462 -446.8290 -361.5070 30787.6467 -293.7850 -234.2828
ENERGY: 900000 0.4656 4.1495 0.4834 0.0000 -10833.2291 1445.8559 0.0000 0.0000 1742.8275 -7639.4472 296.1941 -9382.2747 -7493.9720 304.3254 -121.6688 -29.0922 30181.7004 -235.1902 -170.4248
ENERGY: 1200000 1.5256 2.8281 0.3554 0.0000 -10789.0208 1510.7860 0.0000 0.0000 1759.1104 -7514.4153 298.9614 -9273.5257 -7508.2281 302.5594 344.7537 434.8723 30851.3706 -183.9959 -123.3824
ENERGY: 1500000 3.0847 2.0233 0.1768 0.0000 -10547.2442 1365.2500 0.0000 0.0000 1764.6652 -7412.0442 299.9054 -9176.7093 -7504.2354 301.4406 -157.8678 -185.6326 30870.5398 -234.4184 -173.4088
TCL: Running FEP window  15: Lambda1 0.7000000000000001 Lambda2 0.7500000000000001 [dLambda 0.050000000000000044]
TCL: Setting parameter firsttimestep to 0
TCL: Setting parameter alchLambda to 0.7000000000000001
Info: NONBONDED TABLE R-SQUARED SPACING: 0.0625
Info: NONBONDED TABLE SIZE: 705 POINTS
TCL: Setting parameter alchLambda2 to 0.7500000000000001
Info: NONBONDED TABLE R-SQUARED SPACING: 0.0625
Info: NONBONDED TABLE SIZE: 705 POINTS
TCL: Running for 1500000 steps
ETITLE: TS BOND ANGLE DIHED IMPRP ELECT VDW BOUNDARY MISC KINETIC TOTAL TEMP POTENTIAL TOTALAVG TEMPAVG PRESSURE GPRESSURE VOLUME PRESSAVG GPRESSAVG
ENERGY: 0 3.0847 2.0233 0.1768 0.0000 -10547.2712 1364.8780 0.0000 0.0000 1763.7933 -7413.3150 299.7572 -9177.1083 -7413.3150 299.7572 -254.2054 -181.3793 30870.5398 -254.2054 -181.3793
ENERGY: 300000 1.9546 2.0290 0.5060 0.0000 -10763.8207 1411.7117 0.0000 0.0000 1733.3723 -7614.2471 294.5872 -9347.6194 -7502.6081 297.5872 -416.4323 -326.9600 30434.4010 71.3549 152.9032
ENERGY: 600000 1.1456 1.5046 0.1442 0.0000 -10859.8833 1511.5929 0.0000 0.0000 1811.4443 -7534.0517 307.8555 -9345.4960 -7488.9782 301.3688 662.6987 660.6143 30175.6503 184.3431 248.0193
ENERGY: 900000 2.4199 2.2734 0.3553 0.0000 -10831.0769 1469.1473 0.0000 0.0000 1740.6695 -7616.2115 295.8273 -9356.8810 -7489.4700 302.1491 299.2068 366.3429 29984.1007 127.1784 187.9266
ENERGY: 1200000 3.3535 3.3972 0.3401 0.0000 -10688.8103 1435.5537 0.0000 0.0000 1735.2114 -7510.9545 294.8997 -9246.1659 -7504.9278 300.7667 -147.0063 -55.8565 30485.4812 57.4160 127.4381
ENERGY: 1500000 0.9776 2.8923 2.6008 0.0000 -10817.3034 1527.9076 0.0000 0.0000 1769.7712 -7513.1538 300.7732 -9282.9251 -7506.2829 301.2683 681.1706 685.0898 30411.6380 61.5413 126.9356
TCL: Running FEP window  16: Lambda1 0.7500000000000001 Lambda2 0.8000000000000002 [dLambda 0.050000000000000044]
TCL: Setting parameter firsttimestep to 0
TCL: Setting parameter alchLambda to 0.7500000000000001
Info: NONBONDED TABLE R-SQUARED SPACING: 0.0625
Info: NONBONDED TABLE SIZE: 705 POINTS
TCL: Setting parameter alchLambda2 to 0.8000000000000002
Info: NONBONDED TABLE R-SQUARED SPACING: 0.0625
Info: NONBONDED TABLE SIZE: 705 POINTS
TCL: Running for 1500000 steps
ETITLE: TS BOND ANGLE DIHED IMPRP ELECT VDW BOUNDARY MISC KINETIC TOTAL TEMP POTENTIAL TOTALAVG TEMPAVG PRESSURE GPRESSURE VOLUME PRESSAVG GPRESSAVG
ENERGY: 0 0.9776 2.8923 2.6008 0.0000 -10817.3015 1527.6941 0.0000 0.0000 1768.8555 -7514.2812 300.6176 -9283.1368 -7514.2812 300.6176 612.0972 689.7322 30411.6380 612.0972 689.7322
ENERGY: 300000 2.0315 4.1201 0.1401 0.0000 -10681.7617 1436.0152 0.0000 0.0000 1741.9294 -7497.5255 296.0415 -9239.4548 -7513.7753 299.5134 69.7987 129.0412 30769.4062 63.7395 127.9084
ENERGY: 600000 2.0558 5.8317 0.7214 0.0000 -10680.8159 1440.2548 0.0000 0.0000 1718.4476 -7513.5046 292.0507 -9231.9522 -7532.9900 298.9296 3.7223 83.7020 30562.5895 1.2388 58.1918
ENERGY: 900000 2.4484 3.6976 0.9369 0.0000 -10838.4305 1512.3071 0.0000 0.0000 1776.5488 -7542.4917 301.9250 -9319.0405 -7530.5013 299.8579 417.0689 460.2146 30388.6051 54.3054 107.8858
ENERGY: 1200000 2.1372 1.1105 0.3539 0.0000 -10612.4108 1350.4215 0.0000 0.0000 1747.2401 -7511.1475 296.9440 -9258.3876 -7527.5873 299.3988 -346.0407 -348.6428 30347.7947 120.4733 179.1277
ENERGY: 1500000 2.4255 4.6500 0.3640 0.0000 -10554.0793 1351.0770 0.0000 0.0000 1796.7658 -7398.7971 305.3609 -9195.5629 -7522.1940 299.5844 -507.5338 -402.2151 31091.2843 26.7879 91.7002
TCL: Running FEP window  17: Lambda1 0.8000000000000002 Lambda2 0.8500000000000002 [dLambda 0.050000000000000044]
TCL: Setting parameter firsttimestep to 0
TCL: Setting parameter alchLambda to 0.8000000000000002
Info: NONBONDED TABLE R-SQUARED SPACING: 0.0625
Info: NONBONDED TABLE SIZE: 705 POINTS
TCL: Setting parameter alchLambda2 to 0.8500000000000002
Info: NONBONDED TABLE R-SQUARED SPACING: 0.0625
Info: NONBONDED TABLE SIZE: 705 POINTS
TCL: Running for 1500000 steps
ETITLE: TS BOND ANGLE DIHED IMPRP ELECT VDW BOUNDARY MISC KINETIC TOTAL TEMP POTENTIAL TOTALAVG TEMPAVG PRESSURE GPRESSURE VOLUME PRESSAVG GPRESSAVG
ENERGY: 0 2.4255 4.6500 0.3640 0.0000 -10554.1362 1350.7212 0.0000 0.0000 1795.8957 -7400.0798 305.2131 -9195.9755 -7400.0798 305.2131 -471.7339 -393.6569 31091.2843 -471.7339 -393.6569
ENERGY: 300000 1.3023 2.9652 0.3689 0.0000 -10800.8546 1477.8428 0.0000 0.0000 1769.6317 -7548.7438 300.7495 -9318.3755 -7491.0345 299.9284 456.3317 542.4023 29900.0682 -360.4716 -283.3195
ENERGY: 600000 4.1905 2.0712 0.2180 0.0000 -10678.1226 1410.0399 0.0000 0.0000 1794.5918 -7467.0112 304.9914 -9261.6030 -7518.3617 298.2690 -275.9435 -213.2978 30809.6240 -350.7034 -273.5011
ENERGY: 900000 0.4403 2.0380 0.5479 0.0000 -10777.1473 1448.0779 0.0000 0.0000 1760.0618 -7565.9814 299.1231 -9326.0432 -7510.6573 299.1217 9.3504 123.4044 30368.7366 -268.1879 -189.7383
ENERGY: 1200000 3.4143 3.2922 0.2601 0.0000 -10751.4809 1429.7443 0.0000 0.0000 1758.9534 -7555.8168 298.9347 -9314.7701 -7513.1231 298.4267 33.8476 87.3476 30294.3631 -221.2271 -150.0818
ENERGY: 1500000 1.6560 1.5832 1.3436 0.0000 -10724.5644 1416.2237 0.0000 0.0000 1743.2094 -7560.5486 296.2590 -9303.7579 -7516.4141 297.8584 -232.9883 -206.1877 30735.9019 -224.0151 -153.4541
TCL: Running FEP window  18: Lambda1 0.8500000000000002 Lambda2 0.9000000000000002 [dLambda 0.050000000000000044]
TCL: Setting parameter firsttimestep to 0
TCL: Setting parameter alchLambda to 0.8500000000000002
Info: NONBONDED TABLE R-SQUARED SPACING: 0.0625
Info: NONBONDED TABLE SIZE: 705 POINTS
TCL: Setting parameter alchLambda2 to 0.9000000000000002
Info: NONBONDED TABLE R-SQUARED SPACING: 0.0625
Info: NONBONDED TABLE SIZE: 705 POINTS
TCL: Running for 1500000 steps
ETITLE: TS BOND ANGLE DIHED IMPRP ELECT VDW BOUNDARY MISC KINETIC TOTAL TEMP POTENTIAL TOTALAVG TEMPAVG PRESSURE GPRESSURE VOLUME PRESSAVG GPRESSAVG
ENERGY: 0 1.6560 1.5832 1.3436 0.0000 -10724.5785 1415.9020 0.0000 0.0000 1742.3440 -7561.7496 296.1119 -9304.0936 -7561.7496 296.1119 -283.0877 -198.1527 30735.9019 -283.0877 -198.1527
ENERGY: 300000 1.9589 1.5586 0.1420 0.0000 -10599.4546 1362.2271 0.0000 0.0000 1809.1544 -7424.4137 307.4664 -9233.5681 -7474.9300 303.8508 -437.2672 -379.8382 30678.1695 -303.9250 -213.3728
ENERGY: 600000 5.0036 4.9541 0.3247 0.0000 -10711.7422 1467.1231 0.0000 0.0000 1756.9478 -7477.3888 298.5938 -9234.3366 -7510.8159 300.1267 67.9019 135.3152 31037.8392 -133.7564 -55.0945
ENERGY: 900000 1.3758 2.5906 0.2940 0.0000 -10674.7240 1406.8455 0.0000 0.0000 1798.2520 -7465.3661 305.6135 -9263.6181 -7508.6851 300.9469 -339.3849 -228.5904 30777.3760 -259.6493 -187.1251
ENERGY: 1200000 5.8811 3.6752 0.4470 0.0000 -10723.7386 1454.9686 0.0000 0.0000 1772.1195 -7486.6470 301.1723 -9258.7666 -7506.5309 301.8757 180.4049 214.0248 30557.5903 -267.8941 -206.9102
ENERGY: 1500000 1.2651 1.5387 0.3293 0.0000 -10735.6244 1463.5088 0.0000 0.0000 1784.0789 -7484.9035 303.2048 -9268.9824 -7507.5826 302.1637 321.4040 386.7019 30438.4861 -247.3181 -185.3730
TCL: Running FEP window  19: Lambda1 0.9000000000000002 Lambda2 0.9500000000000003 [dLambda 0.050000000000000044]
TCL: Setting parameter firsttimestep to 0
TCL: Setting parameter alchLambda to 0.9000000000000002
Info: NONBONDED TABLE R-SQUARED SPACING: 0.0625
Info: NONBONDED TABLE SIZE: 705 POINTS
TCL: Setting parameter alchLambda2 to 0.9500000000000003
Info: NONBONDED TABLE R-SQUARED SPACING: 0.0625
Info: NONBONDED TABLE SIZE: 705 POINTS
TCL: Running for 1500000 steps
ETITLE: TS BOND ANGLE DIHED IMPRP ELECT VDW BOUNDARY MISC KINETIC TOTAL TEMP POTENTIAL TOTALAVG TEMPAVG PRESSURE GPRESSURE VOLUME PRESSAVG GPRESSAVG
ENERGY: 0 1.2651 1.5387 0.3293 0.0000 -10735.6718 1464.2454 0.0000 0.0000 1783.1911 -7485.1021 303.0539 -9268.2932 -7485.1021 303.0539 338.3762 408.2158 30438.4861 338.3762 408.2158
ENERGY: 300000 1.4156 5.4864 0.1326 0.0000 -10678.2062 1404.5658 0.0000 0.0000 1712.6653 -7553.9404 291.0680 -9266.6057 -7499.3267 302.3058 -85.2440 -70.7346 30392.8877 245.2782 289.0834
ENERGY: 600000 2.7659 4.4244 0.3028 0.0000 -10688.2343 1409.7667 0.0000 0.0000 1745.2928 -7525.6817 296.6131 -9270.9746 -7496.6376 301.2860 -424.4249 -419.6376 30879.8038 88.7305 123.7636
ENERGY: 900000 2.2696 3.0967 0.2232 0.0000 -10736.8206 1512.7131 0.0000 0.0000 1727.0483 -7491.4697 293.5124 -9218.5180 -7505.3969 300.5639 905.6369 906.2820 30339.5593 187.9655 236.1340
ENERGY: 1200000 2.1861 3.4762 0.7454 0.0000 -10645.2944 1367.5528 0.0000 0.0000 1753.0205 -7518.3133 297.9264 -9271.3338 -7510.8767 299.8786 -525.6332 -465.1855 30640.5073 63.2797 110.7968
ENERGY: 1500000 4.1744 2.5756 0.0984 0.0000 -10761.4112 1476.4803 0.0000 0.0000 1785.9236 -7492.1589 303.5183 -9278.0826 -7508.0261 300.0452 170.7836 323.3979 30550.8432 -56.2454 -1.7851
TCL: Running FEP window  20: Lambda1 0.9500000000000003 Lambda2 1.0    [dLambda 0.04999999999999971]
TCL: Setting parameter firsttimestep to 0
TCL: Setting parameter alchLambda to 0.9500000000000003
Info: NONBONDED TABLE R-SQUARED SPACING: 0.0625
Info: NONBONDED TABLE SIZE: 705 POINTS
TCL: Setting parameter alchLambda2 to 1.0
Info: NONBONDED TABLE R-SQUARED SPACING: 0.0625
Info: NONBONDED TABLE SIZE: 705 POINTS
TCL: Running for 1500000 steps
ETITLE: TS BOND ANGLE DIHED IMPRP ELECT VDW BOUNDARY MISC KINETIC TOTAL TEMP POTENTIAL TOTALAVG TEMPAVG PRESSURE GPRESSURE VOLUME PRESSAVG GPRESSAVG
ENERGY: 0 4.1744 2.5756 0.0984 0.0000 -10761.3712 1476.5387 0.0000 0.0000 1785.0344 -7492.9498 303.3672 -9277.9842 -7492.9498 303.3672 245.2127 334.6062 30550.8432 245.2127 334.6062
ENERGY: 300000 2.6262 3.9232 0.6916 0.0000 -10739.5590 1422.1333 0.0000 0.0000 1761.0326 -7549.1522 299.2880 -9310.1848 -7524.1395 300.4697 6.4072 138.8950 30088.8598 -47.0168 42.3232
ENERGY: 600000 1.8139 4.3479 0.1299 0.0000 -10759.3688 1470.0618 0.0000 0.0000 1766.5222 -7516.4931 300.2210 -9283.0153 -7517.7181 300.8883 236.6897 291.7447 30659.6253 136.5419 221.1926
ENERGY: 900000 1.1718 2.5684 0.3781 0.0000 -10696.3890 1360.4036 0.0000 0.0000 1698.2910 -7633.5760 288.6251 -9331.8670 -7532.9173 300.2661 -718.4754 -634.0708 30616.2084 94.1548 177.4844
ENERGY: 1200000 0.6016 3.4779 0.6765 0.0000 -10798.9557 1501.7662 0.0000 0.0000 1722.6648 -7569.7688 292.7674 -9292.4335 -7537.8241 299.3988 333.1561 388.7421 30675.9321 148.6996 218.3768
ENERGY: 1500000 1.4180 2.2524 0.4243 0.0000 -10675.4614 1460.6325 0.0000 0.0000 1694.6443 -7516.0899 288.0053 -9210.7342 -7536.8451 298.1455 329.9391 365.8938 30697.5847 140.7411 205.2063
TCL: Exiting due to exit command.
