Info: SIMULATION PARAMETERS:
Info: TIMESTEP               1
Info: NUMBER OF STEPS        0
Info: STEPS PER CYCLE        10
Info: PERIODIC CELL BASIS 1  30 0 0
Info: PERIODIC CELL BASIS 2  0 30 0
Info: PERIODIC CELL BASIS 3  0 0 30
Info: PERIODIC CELL CENTER   0 0 0
Info: WRAPPING ALL CLUSTERS AROUND PERIODIC BOUNDARIES ON OUTPUT.
Info: FIRST LDB TIMESTEP     50
Info: LAST LDB TIMESTEP     -1
Info: HOM BACKGROUND SCALING 1
Info: MIN ATOMS PER PATCH    40
Info: EMPTY PATCH LOAD       40 ATOMS
Info: INITIAL TEMPERATURE    298
Info: CENTER OF MASS MOVING INITIALLY? NO
Info: DIELECTRIC             1
Info: EXCLUDE                SCALED ONE-FOUR
Info: 1-4 ELECTROSTATICS SCALED BY 1
Info: MODIFIED 1-4 VDW PARAMETERS WILL BE USED
Info: DCD FILENAME           output.dcd
Info: DCD FREQUENCY          500
Info: DCD FIRST STEP         500
Info: DCD FILE WILL CONTAIN UNIT CELL DATA
Info: NO EXTENDED SYSTEM TRAJECTORY OUTPUT
Info: NO VELOCITY DCD OUTPUT
Info: NO FORCE DCD OUTPUT
Info: OUTPUT FILENAME        output
Info: BINARY OUTPUT FILES WILL BE USED
Info: NO RESTART FILE
Info: SWITCHING ACTIVE
Info: SWITCHING ON           10
Info: SWITCHING OFF          12
Info: PAIRLIST DISTANCE      14
Info: PAIRLIST SHRINK RATE   0.01
Info: PAIRLIST GROW RATE     0.01
Info: PAIRLIST TRIGGER       0.3
Info: PAIRLISTS PER CYCLE    2
Info: PAIRLISTS ENABLED
Info: MARGIN                 0
Info: HYDROGEN GROUP CUTOFF  2.5
Info: PATCH DIMENSION        16.5
Info: ENERGY OUTPUT STEPS    500
Info: ENERGY EVALUATION STEPS    500
Info: OUTPUT ENERGY PRECISION 4
Info: CROSSTERM ENERGY INCLUDED IN DIHEDRAL
Info: TIMING OUTPUT STEPS    500
Info: LANGEVIN DYNAMICS ACTIVE
Info: LANGEVIN TEMPERATURE   298
Info: LANGEVIN USING BBK INTEGRATOR
Info: LANGEVIN DAMPING COEFFICIENT IS 2 INVERSE PS
Info: LANGEVIN DYNAMICS NOT APPLIED TO HYDROGENS
Info: MULTILEVEL SUMMATION METHOD (MSM) FOR ELECTROSTATICS ACTIVE
Info: MSM WITH C1 CUBIC INTERPOLATION AND C2 TAYLOR SPLITTING
Info: FULL ELECTROSTATIC EVALUATION FREQUENCY      1
Info: USING VERLET I (r-RESPA) MTS SCHEME.
Info: C1 SPLITTING OF LONG RANGE ELECTROSTATICS
Info: PLACING ATOMS IN PATCHES BY HYDROGEN GROUPS
Info: RIGID BONDS TO HYDROGEN : ALL
Info:         ERROR TOLERANCE : 1e-08
Info:          MAX ITERATIONS : 100
Info: RIGID WATER USING SETTLE ALGORITHM
Info: RANDOM NUMBER SEED     1740227362
Info: USE HYDROGEN BONDS?    NO
Info: COORDINATE PDB         ionized.pdb
Info: STRUCTURE FILE         ionized.psf
Info: PARAMETER file: CHARMM format!
Info: PARAMETERS             par_all27_prot_lipid.inp
Info: USING ARITHMETIC MEAN TO COMBINE L-J SIGMA PARAMETERS
Info: SUMMARY OF PARAMETERS:
Info: 180 BONDS
Info: 447 ANGLES
Info: 566 DIHEDRAL
Info: 46 IMPROPER
Info: 6 CROSSTERM
Info: 119 VDW
Info: 0 VDW_PAIRS
Info: 0 NBTHOLE_PAIRS
Info: STRUCTURE SUMMARY:
Info: 2476 ATOMS
Info: 1650 BONDS
Info: 825 ANGLES
Info: 0 DIHEDRALS
Info: 0 IMPROPERS
Info: 0 CROSSTERMS
Info: 0 EXCLUSIONS
Info: 2475 RIGID BONDS
Info: 4953 DEGREES OF FREEDOM
Info: 826 HYDROGEN GROUPS
Info: 3 ATOMS IN LARGEST HYDROGEN GROUP
Info: 826 MIGRATION GROUPS
Info: 3 ATOMS IN LARGEST MIGRATION GROUP
Info: TOTAL MASS = 14885.7 amu
Info: TOTAL CHARGE = 1 e
Info: MASS DENSITY = 0.915513 g/cm^3
Info: ATOM DENSITY = 0.0917037 atoms/A^3
Info: ADDED 2475 IMPLICIT EXCLUSIONS
Info: NONBONDED TABLE R-SQUARED SPACING: 0.0625
Info: NONBONDED TABLE SIZE: 769 POINTS
Info: REMOVING COM VELOCITY 0.0645603 -0.0746413 0.0306418
Info: MSM using C1 cubic interpolation
Info: MSM using C2 Taylor splitting function
Info: MSM block size decomposition along X is 8 grid points
Info: MSM block size decomposition along Y is 8 grid points
Info: MSM block size decomposition along Z is 8 grid points
Info: MSM grid spacing along X is 2.5 A
Info: MSM grid spacing along Y is 2.5 A
Info: MSM grid spacing along Z is 2.5 A
Info: MSM using 3 levels
Info:     level 0:  [0..11] x [0..11] x [0..11]
Info:     level 1:  [0..5] x [0..5] x [0..5]
Info:     level 2:  [0..2] x [0..2] x [0..2]
Info: MSM finished calculating stencils
Info: MSM finished creating map for grid levels
Info: MSM finished creating map for patches
Info: MSM has 9 interpolation / anterpolation objects (one per patch)
Info: MSM grid level 0 decomposed into 8 blocks ( 2 x 2 x 2 )
Info: MSM grid level 1 decomposed into 1 block ( 1 x 1 x 1 )
Info: MSM grid level 2 decomposed into 1 block ( 1 x 1 x 1 )
Info: MSM grid cutoff calculation decomposed into 783 work objects
TCL: Minimizing for 100 steps
ETITLE: TS BOND ANGLE DIHED IMPRP ELECT VDW BOUNDARY MISC KINETIC TOTAL TEMP POTENTIAL TOTAL3 TEMPAVG PRESSURE GPRESSURE VOLUME PRESSAVG GPRESSAVG
ENERGY: 0 0.0000 0.0000 0.0000 0.0000 -7348.6495 6353.7252 0.0000 0.0000 0.0000 -994.9243 0.0000 -994.9243 -994.9243 0.0000 75204.0846 46356.0498 27000.0000 75204.0846 46356.0498
ENERGY: 20 0.0000 0.0000 0.0000 0.0000 -8744.5979 644.7588 0.0000 0.0000 0.0000 -8099.8392 0.0000 -8099.8392 -8099.8392 0.0000 14286.6717 -2608.4257 27000.0000 14286.6717 -2608.4257
ENERGY: 40 0.0000 0.0000 0.0000 0.0000 -9255.3681 673.7888 0.0000 0.0000 0.0000 -8581.5794 0.0000 -8581.5794 -8581.5794 0.0000 14306.7126 -3612.4729 27000.0000 14306.7126 -3612.4729
ENERGY: 60 0.0000 0.0000 0.0000 0.0000 -9570.7012 738.1056 0.0000 0.0000 0.0000 -8832.5955 0.0000 -8832.5955 -8832.5955 0.0000 14889.9961 -3661.0806 27000.0000 14889.9961 -3661.0806
ENERGY: 80 0.0000 0.0000 0.0000 0.0000 -9709.8995 782.3648 0.0000 0.0000 0.0000 -8927.5347 0.0000 -8927.5347 -8927.5347 0.0000 15330.7037 -3519.6635 27000.0000 15330.7037 -3519.6635
ENERGY: 100 0.0000 0.0000 0.0000 0.0000 -9872.7827 825.2807 0.0000 0.0000 0.0000 -9047.5020 0.0000 -9047.5020 -9047.5020 0.0000 15763.6412 15684.3112 27000.0000 15763.6412 15684.3112
TCL: Running for 100000 steps
ETITLE: TS BOND ANGLE DIHED IMPRP ELECT VDW BOUNDARY MISC KINETIC TOTAL TEMP POTENTIAL TOTAL3 TEMPAVG PRESSURE GPRESSURE VOLUME PRESSAVG GPRESSAVG
ENERGY: 500 0.0000 0.0000 0.0000 0.0000 -9407.1141 978.5843 0.0000 0.0000 1080.7269 -7347.8029 219.6029 -8428.5297 -7347.5597 206.0315 -1582.6810 -1572.5736 27000.0000 -2043.3236 -2042.4947
ENERGY: 20500 0.0000 0.0000 0.0000 0.0000 -8811.3916 800.5238 0.0000 0.0000 1486.0535 -6524.8143 301.9649 -8010.8678 -6522.6599 297.1949 -1675.4253 -1677.3479 27000.0000 -1107.7758 -1107.2617
ENERGY: 40500 0.0000 0.0000 0.0000 0.0000 -8859.8244 817.9674 0.0000 0.0000 1427.2968 -6614.5602 290.0256 -8041.8570 -6613.3046 291.3733 -1697.6655 -1739.7939 27000.0000 -1575.2460 -1576.2961
ENERGY: 60000 0.0000 0.0000 0.0000 0.0000 -8768.6283 804.0934 0.0000 0.0000 1419.1922 -6545.3426 288.3788 -7964.5348 -6543.0489 298.0426 -1659.3512 -1646.7485 27000.0000 -1381.5899 -1382.7821
ENERGY: 80000 0.0000 0.0000 0.0000 0.0000 -8793.1075 842.0853 0.0000 0.0000 1482.0039 -6469.0184 301.1420 -7951.0223 -6467.8492 300.9059 -1188.4961 -1163.5178 27000.0000 -1165.3362 -1165.9370
ENERGY: 100000 0.0000 0.0000 0.0000 0.0000 -8800.0531 866.3831 0.0000 0.0000 1505.3332 -6428.3367 305.8826 -7933.6700 -6428.4406 305.0695 -807.9886 -808.1466 27000.0000 -1035.3709 -1035.7498
